data_crystal

_cell_length_a 25.09800
_cell_length_b 25.09800
_cell_length_c 28.44640
_cell_angle_alpha 90.00000
_cell_angle_beta  90.00000
_cell_angle_gamma 120.00000

_symmetry_space_group_name_	'P 1'
_symmetry_space_group_name_H-M	'P 1'

loop_
_symmetry_equiv_pos_as_xyz
  x,y,z

loop_
_atom_site_label
_atom_site_type_symbol
_atom_site_fract_x
_atom_site_fract_y
_atom_site_fract_z
_atom_site_charge
O 	O 	0.69687 0.16153 0.07891 -0.44200
O 	O 	0.63641 0.19327 0.05136 -0.42500
C 	C 	0.66075 0.18251 0.08539 0.31400
C 	C 	0.64650 0.19340 0.13425 -0.07900
C 	C 	0.67330 0.18140 0.17242 0.01900
H 	H 	0.70240 0.16930 0.16760 0.04900
C 	C 	0.60640 0.21480 0.14190 0.02200
H 	H 	0.58990 0.22500 0.11650 0.05200
C 	C 	0.65630 0.18740 0.21798 -0.09600
H 	H 	0.67370 0.17850 0.24350 0.07000
C 	C 	0.59040 0.22130 0.18737 -0.09500
H 	H 	0.56320 0.23580 0.19210 0.07100
C 	C 	0.61420 0.20650 0.22557 0.04100
O 	O 	0.83847 0.53534 0.07891 -0.44100
O 	O 	0.80673 0.44314 0.05136 -0.42400
C 	C 	0.81749 0.47824 0.08539 0.31400
C 	C 	0.80660 0.45310 0.13425 -0.07900
C 	C 	0.81860 0.49190 0.17242 0.01900
H 	H 	0.83070 0.53310 0.16760 0.04900
C 	C 	0.78520 0.39160 0.14190 0.02200
H 	H 	0.77500 0.36490 0.11650 0.05200
C 	C 	0.81260 0.46890 0.21798 -0.09600
H 	H 	0.82150 0.49520 0.24350 0.07000
C 	C 	0.77870 0.36910 0.18737 -0.09500
H 	H 	0.76420 0.32740 0.19210 0.07100
C 	C 	0.79350 0.40770 0.22557 0.04100
O 	O 	0.46466 0.30313 0.07891 -0.44100
O 	O 	0.55686 0.36359 0.05136 -0.42400
C 	C 	0.52176 0.33925 0.08539 0.31400
C 	C 	0.54690 0.35350 0.13425 -0.07900
C 	C 	0.50810 0.32670 0.17242 0.01900
H 	H 	0.46690 0.29760 0.16760 0.04900
C 	C 	0.60840 0.39360 0.14190 0.02200
H 	H 	0.63510 0.41010 0.11650 0.05200
C 	C 	0.53110 0.34370 0.21798 -0.09600
H 	H 	0.50480 0.32630 0.24350 0.07000
C 	C 	0.63090 0.40960 0.18737 -0.09500
H 	H 	0.67260 0.43680 0.19210 0.07100
C 	C 	0.59230 0.38580 0.22557 0.04100
O 	O 	0.30313 0.83847 0.07891 -0.44100
O 	O 	0.36359 0.80673 0.05136 -0.42400
C 	C 	0.33925 0.81749 0.08539 0.31400
C 	C 	0.35350 0.80660 0.13425 -0.07900
C 	C 	0.32670 0.81860 0.17242 0.01900
H 	H 	0.29760 0.83070 0.16760 0.04900
C 	C 	0.39360 0.78520 0.14190 0.02200
H 	H 	0.41010 0.77500 0.11650 0.05200
C 	C 	0.34370 0.81260 0.21798 -0.09600
H 	H 	0.32630 0.82150 0.24350 0.07000
C 	C 	0.40960 0.77870 0.18737 -0.09500
H 	H 	0.43680 0.76420 0.19210 0.07100
C 	C 	0.38580 0.79350 0.22557 0.04100
O 	O 	0.16153 0.46466 0.07891 -0.44100
O 	O 	0.19327 0.55686 0.05136 -0.42400
C 	C 	0.18251 0.52176 0.08539 0.31400
C 	C 	0.19340 0.54690 0.13425 -0.07900
C 	C 	0.18140 0.50810 0.17242 0.01900
H 	H 	0.16930 0.46690 0.16760 0.04900
C 	C 	0.21480 0.60840 0.14190 0.02200
H 	H 	0.22500 0.63510 0.11650 0.05200
C 	C 	0.18740 0.53110 0.21798 -0.09600
H 	H 	0.17850 0.50480 0.24350 0.07000
C 	C 	0.22130 0.63090 0.18737 -0.09500
H 	H 	0.23580 0.67260 0.19210 0.07100
C 	C 	0.20650 0.59230 0.22557 0.04100
O 	O 	0.53534 0.69687 0.07891 -0.44100
O 	O 	0.44314 0.63641 0.05136 -0.42400
C 	C 	0.47824 0.66075 0.08539 0.31400
C 	C 	0.45310 0.64650 0.13425 -0.07900
C 	C 	0.49190 0.67330 0.17242 0.01900
H 	H 	0.53310 0.70240 0.16760 0.04900
C 	C 	0.39160 0.60640 0.14190 0.02200
H 	H 	0.36490 0.58990 0.11650 0.05200
C 	C 	0.46890 0.65630 0.21798 -0.09600
H 	H 	0.49520 0.67370 0.24350 0.07000
C 	C 	0.36910 0.59040 0.18737 -0.09500
H 	H 	0.32740 0.56320 0.19210 0.07100
C 	C 	0.40770 0.61420 0.22557 0.04100
O 	O 	0.16153 0.69687 0.42109 -0.44000
O 	O 	0.19327 0.63641 0.44864 -0.41600
C 	C 	0.18251 0.66075 0.41461 0.31100
C 	C 	0.19340 0.64650 0.36575 -0.07700
C 	C 	0.18140 0.67330 0.32758 0.01600
H 	H 	0.16930 0.70240 0.33240 0.05000
C 	C 	0.21480 0.60640 0.35810 0.02000
H 	H 	0.22500 0.58990 0.38350 0.05300
C 	C 	0.18740 0.65630 0.28202 -0.09400
H 	H 	0.17850 0.67370 0.25650 0.07000
C 	C 	0.22130 0.59040 0.31263 -0.09300
H 	H 	0.23580 0.56320 0.30790 0.07000
C 	C 	0.20650 0.61420 0.27443 0.04000
O 	O 	0.53534 0.83847 0.42109 -0.44000
O 	O 	0.44314 0.80673 0.44864 -0.41600
C 	C 	0.47824 0.81749 0.41461 0.31100
C 	C 	0.45310 0.80660 0.36575 -0.07700
C 	C 	0.49190 0.81860 0.32758 0.01600
H 	H 	0.53310 0.83070 0.33240 0.05000
C 	C 	0.39160 0.78520 0.35810 0.02000
H 	H 	0.36490 0.77500 0.38350 0.05300
C 	C 	0.46890 0.81260 0.28202 -0.09400
H 	H 	0.49520 0.82150 0.25650 0.07000
C 	C 	0.36910 0.77870 0.31263 -0.09300
H 	H 	0.32740 0.76420 0.30790 0.07000
C 	C 	0.40770 0.79350 0.27443 0.04000
O 	O 	0.30313 0.46466 0.42109 -0.44000
O 	O 	0.36359 0.55686 0.44864 -0.41600
C 	C 	0.33925 0.52176 0.41461 0.31100
C 	C 	0.35350 0.54690 0.36575 -0.07700
C 	C 	0.32670 0.50810 0.32758 0.01600
H 	H 	0.29760 0.46690 0.33240 0.05000
C 	C 	0.39360 0.60840 0.35810 0.02000
H 	H 	0.41010 0.63510 0.38350 0.05300
C 	C 	0.34370 0.53110 0.28202 -0.09400
H 	H 	0.32630 0.50480 0.25650 0.07000
C 	C 	0.40960 0.63090 0.31263 -0.09300
H 	H 	0.43680 0.67260 0.30790 0.07000
C 	C 	0.38580 0.59230 0.27443 0.04000
O 	O 	0.83847 0.30313 0.42109 -0.44000
O 	O 	0.80673 0.36359 0.44864 -0.41600
C 	C 	0.81749 0.33925 0.41461 0.31100
C 	C 	0.80660 0.35350 0.36575 -0.07700
C 	C 	0.81860 0.32670 0.32758 0.01600
H 	H 	0.83070 0.29760 0.33240 0.05000
C 	C 	0.78520 0.39360 0.35810 0.02000
H 	H 	0.77500 0.41010 0.38350 0.05300
C 	C 	0.81260 0.34370 0.28202 -0.09400
H 	H 	0.82150 0.32630 0.25650 0.07000
C 	C 	0.77870 0.40960 0.31263 -0.09300
H 	H 	0.76420 0.43680 0.30790 0.07000
C 	C 	0.79350 0.38580 0.27443 0.04000
O 	O 	0.46466 0.16153 0.42109 -0.44000
O 	O 	0.55686 0.19327 0.44864 -0.41600
C 	C 	0.52176 0.18251 0.41461 0.31100
C 	C 	0.54690 0.19340 0.36575 -0.07700
C 	C 	0.50810 0.18140 0.32758 0.01600
H 	H 	0.46690 0.16930 0.33240 0.05000
C 	C 	0.60840 0.21480 0.35810 0.02000
H 	H 	0.63510 0.22500 0.38350 0.05300
C 	C 	0.53110 0.18740 0.28202 -0.09400
H 	H 	0.50480 0.17850 0.25650 0.07000
C 	C 	0.63090 0.22130 0.31263 -0.09300
H 	H 	0.67260 0.23580 0.30790 0.07000
C 	C 	0.59230 0.20650 0.27443 0.04000
O 	O 	0.69687 0.53534 0.42109 -0.44000
O 	O 	0.63641 0.44314 0.44864 -0.41600
C 	C 	0.66075 0.47824 0.41461 0.31100
C 	C 	0.64650 0.45310 0.36575 -0.07700
C 	C 	0.67330 0.49190 0.32758 0.01600
H 	H 	0.70240 0.53310 0.33240 0.05000
C 	C 	0.60640 0.39160 0.35810 0.02000
H 	H 	0.58990 0.36490 0.38350 0.05300
C 	C 	0.65630 0.46890 0.28202 -0.09400
H 	H 	0.67370 0.49520 0.25650 0.07000
C 	C 	0.59040 0.36910 0.31263 -0.09300
H 	H 	0.56320 0.32740 0.30790 0.07000
C 	C 	0.61420 0.40770 0.27443 0.04000
O 	O 	0.30313 0.83847 0.92109 -0.41000
O 	O 	0.36359 0.80673 0.94864 -0.38200
C 	C 	0.33925 0.81749 0.91461 0.30400
C 	C 	0.35350 0.80660 0.86575 -0.06000
C 	C 	0.32670 0.81860 0.82758 0.00800
H 	H 	0.29760 0.83070 0.83240 0.05800
C 	C 	0.39360 0.78520 0.85810 0.01100
H 	H 	0.41010 0.77500 0.88350 0.06500
C 	C 	0.34370 0.81260 0.78202 -0.08400
H 	H 	0.32630 0.82150 0.75650 0.06900
C 	C 	0.40960 0.77870 0.81263 -0.08300
H 	H 	0.43680 0.76420 0.80790 0.06900
C 	C 	0.38580 0.79350 0.77443 0.03400
O 	O 	0.16153 0.46466 0.92109 -0.41000
O 	O 	0.19327 0.55686 0.94864 -0.38200
C 	C 	0.18251 0.52176 0.91461 0.30400
C 	C 	0.19340 0.54690 0.86575 -0.06000
C 	C 	0.18140 0.50810 0.82758 0.00800
H 	H 	0.16930 0.46690 0.83240 0.05900
C 	C 	0.21480 0.60840 0.85810 0.01100
H 	H 	0.22500 0.63510 0.88350 0.06500
C 	C 	0.18740 0.53110 0.78202 -0.08400
H 	H 	0.17850 0.50480 0.75650 0.06900
C 	C 	0.22130 0.63090 0.81263 -0.08300
H 	H 	0.23580 0.67260 0.80790 0.06900
C 	C 	0.20650 0.59230 0.77443 0.03400
O 	O 	0.53534 0.69687 0.92109 -0.41000
O 	O 	0.44314 0.63641 0.94864 -0.38100
C 	C 	0.47824 0.66075 0.91461 0.30400
C 	C 	0.45310 0.64650 0.86575 -0.06000
C 	C 	0.49190 0.67330 0.82758 0.00800
H 	H 	0.53310 0.70240 0.83240 0.05900
C 	C 	0.39160 0.60640 0.85810 0.01100
H 	H 	0.36490 0.58990 0.88350 0.06500
C 	C 	0.46890 0.65630 0.78202 -0.08400
H 	H 	0.49520 0.67370 0.75650 0.06900
C 	C 	0.36910 0.59040 0.81263 -0.08300
H 	H 	0.32740 0.56320 0.80790 0.06900
C 	C 	0.40770 0.61420 0.77443 0.03400
O 	O 	0.69687 0.16153 0.92109 -0.41000
O 	O 	0.63641 0.19327 0.94864 -0.38200
C 	C 	0.66075 0.18251 0.91461 0.30400
C 	C 	0.64650 0.19340 0.86575 -0.06000
C 	C 	0.67330 0.18140 0.82758 0.00800
H 	H 	0.70240 0.16930 0.83240 0.05800
C 	C 	0.60640 0.21480 0.85810 0.01100
H 	H 	0.58990 0.22500 0.88350 0.06500
C 	C 	0.65630 0.18740 0.78202 -0.08400
H 	H 	0.67370 0.17850 0.75650 0.06900
C 	C 	0.59040 0.22130 0.81263 -0.08300
H 	H 	0.56320 0.23580 0.80790 0.06900
C 	C 	0.61420 0.20650 0.77443 0.03400
O 	O 	0.83847 0.53534 0.92109 -0.41000
O 	O 	0.80673 0.44314 0.94864 -0.38200
C 	C 	0.81749 0.47824 0.91461 0.30400
C 	C 	0.80660 0.45310 0.86575 -0.06000
C 	C 	0.81860 0.49190 0.82758 0.00800
H 	H 	0.83070 0.53310 0.83240 0.05900
C 	C 	0.78520 0.39160 0.85810 0.01100
H 	H 	0.77500 0.36490 0.88350 0.06500
C 	C 	0.81260 0.46890 0.78202 -0.08400
H 	H 	0.82150 0.49520 0.75650 0.06900
C 	C 	0.77870 0.36910 0.81263 -0.08300
H 	H 	0.76420 0.32740 0.80790 0.06900
C 	C 	0.79350 0.40770 0.77443 0.03400
O 	O 	0.46466 0.30313 0.92109 -0.41000
O 	O 	0.55686 0.36359 0.94864 -0.38100
C 	C 	0.52176 0.33925 0.91461 0.30400
C 	C 	0.54690 0.35350 0.86575 -0.06000
C 	C 	0.50810 0.32670 0.82758 0.00800
H 	H 	0.46690 0.29760 0.83240 0.05900
C 	C 	0.60840 0.39360 0.85810 0.01100
H 	H 	0.63510 0.41010 0.88350 0.06500
C 	C 	0.53110 0.34370 0.78202 -0.08400
H 	H 	0.50480 0.32630 0.75650 0.06900
C 	C 	0.63090 0.40960 0.81263 -0.08300
H 	H 	0.67260 0.43680 0.80790 0.06900
C 	C 	0.59230 0.38580 0.77443 0.03400
O 	O 	0.83847 0.30313 0.57891 -0.43900
O 	O 	0.80673 0.36359 0.55136 -0.41600
C 	C 	0.81749 0.33925 0.58539 0.31200
C 	C 	0.80660 0.35350 0.63425 -0.07800
C 	C 	0.81860 0.32670 0.67242 0.02000
H 	H 	0.83070 0.29760 0.66760 0.05000
C 	C 	0.78520 0.39360 0.64190 0.02300
H 	H 	0.77500 0.41010 0.61650 0.05300
C 	C 	0.81260 0.34370 0.71798 -0.09700
H 	H 	0.82150 0.32630 0.74350 0.07400
C 	C 	0.77870 0.40960 0.68737 -0.09700
H 	H 	0.76420 0.43680 0.69210 0.07200
C 	C 	0.79350 0.38580 0.72557 0.04500
O 	O 	0.46466 0.16153 0.57891 -0.43900
O 	O 	0.55686 0.19327 0.55136 -0.41600
C 	C 	0.52176 0.18251 0.58539 0.31200
C 	C 	0.54690 0.19340 0.63425 -0.07800
C 	C 	0.50810 0.18140 0.67242 0.02000
H 	H 	0.46690 0.16930 0.66760 0.05000
C 	C 	0.60840 0.21480 0.64190 0.02300
H 	H 	0.63510 0.22500 0.61650 0.05300
C 	C 	0.53110 0.18740 0.71798 -0.09700
H 	H 	0.50480 0.17850 0.74350 0.07400
C 	C 	0.63090 0.22130 0.68737 -0.09700
H 	H 	0.67260 0.23580 0.69210 0.07200
C 	C 	0.59230 0.20650 0.72557 0.04500
O 	O 	0.69687 0.53534 0.57891 -0.43900
O 	O 	0.63641 0.44314 0.55136 -0.41600
C 	C 	0.66075 0.47824 0.58539 0.31200
C 	C 	0.64650 0.45310 0.63425 -0.07800
C 	C 	0.67330 0.49190 0.67242 0.02000
H 	H 	0.70240 0.53310 0.66760 0.05000
C 	C 	0.60640 0.39160 0.64190 0.02300
H 	H 	0.58990 0.36490 0.61650 0.05300
C 	C 	0.65630 0.46890 0.71798 -0.09700
H 	H 	0.67370 0.49520 0.74350 0.07400
C 	C 	0.59040 0.36910 0.68737 -0.09700
H 	H 	0.56320 0.32740 0.69210 0.07200
C 	C 	0.61420 0.40770 0.72557 0.04500
O 	O 	0.16153 0.69687 0.57891 -0.43900
O 	O 	0.19327 0.63641 0.55136 -0.41600
C 	C 	0.18251 0.66075 0.58539 0.31200
C 	C 	0.19340 0.64650 0.63425 -0.07800
C 	C 	0.18140 0.67330 0.67242 0.02000
H 	H 	0.16930 0.70240 0.66760 0.05000
C 	C 	0.21480 0.60640 0.64190 0.02300
H 	H 	0.22500 0.58990 0.61650 0.05300
C 	C 	0.18740 0.65630 0.71798 -0.09700
H 	H 	0.17850 0.67370 0.74350 0.07400
C 	C 	0.22130 0.59040 0.68737 -0.09700
H 	H 	0.23580 0.56320 0.69210 0.07200
C 	C 	0.20650 0.61420 0.72557 0.04500
O 	O 	0.53534 0.83847 0.57891 -0.43900
O 	O 	0.44314 0.80673 0.55136 -0.41600
C 	C 	0.47824 0.81749 0.58539 0.31200
C 	C 	0.45310 0.80660 0.63425 -0.07800
C 	C 	0.49190 0.81860 0.67242 0.02000
H 	H 	0.53310 0.83070 0.66760 0.05000
C 	C 	0.39160 0.78520 0.64190 0.02300
H 	H 	0.36490 0.77500 0.61650 0.05300
C 	C 	0.46890 0.81260 0.71798 -0.09700
H 	H 	0.49520 0.82150 0.74350 0.07400
C 	C 	0.36910 0.77870 0.68737 -0.09700
H 	H 	0.32740 0.76420 0.69210 0.07200
C 	C 	0.40770 0.79350 0.72557 0.04500
O 	O 	0.30313 0.46466 0.57891 -0.43900
O 	O 	0.36359 0.55686 0.55136 -0.41600
C 	C 	0.33925 0.52176 0.58539 0.31200
C 	C 	0.35350 0.54690 0.63425 -0.07800
C 	C 	0.32670 0.50810 0.67242 0.02000
H 	H 	0.29760 0.46690 0.66760 0.05000
C 	C 	0.39360 0.60840 0.64190 0.02300
H 	H 	0.41010 0.63510 0.61650 0.05300
C 	C 	0.34370 0.53110 0.71798 -0.09700
H 	H 	0.32630 0.50480 0.74350 0.07400
C 	C 	0.40960 0.63090 0.68737 -0.09700
H 	H 	0.43680 0.67260 0.69210 0.07200
C 	C 	0.38580 0.59230 0.72557 0.04500
In	In	0.68785 0.16294 -0.00000 1.99000
S 	S 	0.92813 0.30318 -0.00000 0.08700
O 	O 	0.06868 0.38132 -0.00000 -0.41500
O 	O 	0.79306 0.20203 -0.00000 -0.42800
O 	O 	0.07237 0.47008 -0.00000 -0.47600
C 	C 	0.80100 0.25540 -0.00000 0.31800
O 	O 	0.75612 0.26424 -0.00000 -0.45200
C 	C 	0.86340 0.30970 -0.00000 -0.08100
C 	C 	0.97450 0.38100 -0.00000 -0.08300
C 	C 	0.04160 0.41200 -0.00000 0.31700
C 	C 	0.87750 0.36910 -0.00000 -0.00900
H 	H 	0.84810 0.38140 -0.00000 0.06400
C 	C 	0.93970 0.40940 -0.00000 -0.01900
H 	H 	0.95680 0.45190 -0.00000 0.06800
In	In	0.83706 0.52491 -0.00000 1.99000
S 	S 	0.69682 0.62495 -0.00000 0.08700
O 	O 	0.61868 0.68736 -0.00000 -0.41500
O 	O 	0.79797 0.59103 -0.00000 -0.42800
O 	O 	0.52992 0.60229 -0.00000 -0.47600
C 	C 	0.74460 0.54560 -0.00000 0.31800
O 	O 	0.73576 0.49188 -0.00000 -0.45200
C 	C 	0.69030 0.55370 -0.00000 -0.08100
C 	C 	0.61900 0.59350 -0.00000 -0.08300
C 	C 	0.58800 0.62960 -0.00000 0.31700
C 	C 	0.63090 0.50840 -0.00000 -0.00900
H 	H 	0.61860 0.46670 -0.00000 0.06400
C 	C 	0.59060 0.53030 -0.00000 -0.01900
H 	H 	0.54810 0.50490 -0.00000 0.06800
In	In	0.47509 0.31215 -0.00000 1.99000
S 	S 	0.37505 0.07187 -0.00000 0.08700
O 	O 	0.31264 0.93132 -0.00000 -0.41500
O 	O 	0.40897 0.20694 -0.00000 -0.42800
O 	O 	0.39771 0.92763 -0.00000 -0.47600
C 	C 	0.45440 0.19900 -0.00000 0.31800
O 	O 	0.50812 0.24388 -0.00000 -0.45200
C 	C 	0.44630 0.13660 -0.00000 -0.08100
C 	C 	0.40650 0.02550 -0.00000 -0.08300
C 	C 	0.37040 0.95840 -0.00000 0.31700
C 	C 	0.49160 0.12250 -0.00000 -0.00900
H 	H 	0.53330 0.15190 -0.00000 0.06400
C 	C 	0.46970 0.06030 -0.00000 -0.01900
H 	H 	0.49510 0.04320 -0.00000 0.06800
In	In	0.31215 0.83706 -0.00000 1.99000
S 	S 	0.07187 0.69682 -0.00000 0.08700
O 	O 	0.93132 0.61868 -0.00000 -0.41500
O 	O 	0.20694 0.79797 -0.00000 -0.42800
O 	O 	0.92763 0.52992 -0.00000 -0.47600
C 	C 	0.19900 0.74460 -0.00000 0.31800
O 	O 	0.24388 0.73576 -0.00000 -0.45200
C 	C 	0.13660 0.69030 -0.00000 -0.08100
C 	C 	0.02550 0.61900 -0.00000 -0.08300
C 	C 	0.95840 0.58800 -0.00000 0.31700
C 	C 	0.12250 0.63090 -0.00000 -0.00900
H 	H 	0.15190 0.61860 -0.00000 0.06400
C 	C 	0.06030 0.59060 -0.00000 -0.01900
H 	H 	0.04320 0.54810 -0.00000 0.06800
In	In	0.16294 0.47509 -0.00000 1.99000
S 	S 	0.30318 0.37505 -0.00000 0.08700
O 	O 	0.38132 0.31264 -0.00000 -0.41500
O 	O 	0.20203 0.40897 -0.00000 -0.42800
O 	O 	0.47008 0.39771 -0.00000 -0.47600
C 	C 	0.25540 0.45440 -0.00000 0.31800
O 	O 	0.26424 0.50812 -0.00000 -0.45200
C 	C 	0.30970 0.44630 -0.00000 -0.08100
C 	C 	0.38100 0.40650 -0.00000 -0.08300
C 	C 	0.41200 0.37040 -0.00000 0.31700
C 	C 	0.36910 0.49160 -0.00000 -0.00900
H 	H 	0.38140 0.53330 -0.00000 0.06400
C 	C 	0.40940 0.46970 -0.00000 -0.01900
H 	H 	0.45190 0.49510 -0.00000 0.06800
In	In	0.52491 0.68785 -0.00000 1.99000
S 	S 	0.62495 0.92813 -0.00000 0.08700
O 	O 	0.68736 0.06868 -0.00000 -0.41500
O 	O 	0.59103 0.79306 -0.00000 -0.42800
O 	O 	0.60229 0.07237 -0.00000 -0.47600
C 	C 	0.54560 0.80100 -0.00000 0.31800
O 	O 	0.49188 0.75612 -0.00000 -0.45200
C 	C 	0.55370 0.86340 -0.00000 -0.08100
C 	C 	0.59350 0.97450 -0.00000 -0.08300
C 	C 	0.62960 0.04160 -0.00000 0.31700
C 	C 	0.50840 0.87750 -0.00000 -0.00900
H 	H 	0.46670 0.84810 -0.00000 0.06400
C 	C 	0.53030 0.93970 -0.00000 -0.01900
H 	H 	0.50490 0.95680 -0.00000 0.06800
In	In	0.16294 0.68785 0.50000 1.99700
S 	S 	0.30318 0.92813 0.50000 0.10200
O 	O 	0.38132 0.06868 0.50000 -0.40400
O 	O 	0.20203 0.79306 0.50000 -0.41700
O 	O 	0.47008 0.07237 0.50000 -0.46500
C 	C 	0.25540 0.80100 0.50000 0.31800
O 	O 	0.26424 0.75612 0.50000 -0.43500
C 	C 	0.30970 0.86340 0.50000 -0.07500
C 	C 	0.38100 0.97450 0.50000 -0.08100
C 	C 	0.41200 0.04160 0.50000 0.32000
C 	C 	0.36910 0.87750 0.50000 -0.00900
H 	H 	0.38140 0.84810 0.50000 0.07400
C 	C 	0.40940 0.93970 0.50000 -0.01200
H 	H 	0.45190 0.95680 0.50000 0.07100
In	In	0.52491 0.83706 0.50000 1.99700
S 	S 	0.62495 0.69682 0.50000 0.10200
O 	O 	0.68736 0.61868 0.50000 -0.40400
O 	O 	0.59103 0.79797 0.50000 -0.41700
O 	O 	0.60229 0.52992 0.50000 -0.46500
C 	C 	0.54560 0.74460 0.50000 0.31900
O 	O 	0.49188 0.73576 0.50000 -0.43500
C 	C 	0.55370 0.69030 0.50000 -0.07500
C 	C 	0.59350 0.61900 0.50000 -0.08100
C 	C 	0.62960 0.58800 0.50000 0.32000
C 	C 	0.50840 0.63090 0.50000 -0.00900
H 	H 	0.46670 0.61860 0.50000 0.07400
C 	C 	0.53030 0.59060 0.50000 -0.01200
H 	H 	0.50490 0.54810 0.50000 0.07100
In	In	0.31215 0.47509 0.50000 1.99700
S 	S 	0.07187 0.37505 0.50000 0.10200
O 	O 	0.93132 0.31264 0.50000 -0.40400
O 	O 	0.20694 0.40897 0.50000 -0.41700
O 	O 	0.92763 0.39771 0.50000 -0.46500
C 	C 	0.19900 0.45440 0.50000 0.31800
O 	O 	0.24388 0.50812 0.50000 -0.43500
C 	C 	0.13660 0.44630 0.50000 -0.07500
C 	C 	0.02550 0.40650 0.50000 -0.08100
C 	C 	0.95840 0.37040 0.50000 0.32000
C 	C 	0.12250 0.49160 0.50000 -0.00900
H 	H 	0.15190 0.53330 0.50000 0.07400
C 	C 	0.06030 0.46970 0.50000 -0.01200
H 	H 	0.04320 0.49510 0.50000 0.07100
In	In	0.83706 0.31215 0.50000 1.99700
S 	S 	0.69682 0.07187 0.50000 0.10200
O 	O 	0.61868 0.93132 0.50000 -0.40400
O 	O 	0.79797 0.20694 0.50000 -0.41700
O 	O 	0.52992 0.92763 0.50000 -0.46500
C 	C 	0.74460 0.19900 0.50000 0.31800
O 	O 	0.73576 0.24388 0.50000 -0.43500
C 	C 	0.69030 0.13660 0.50000 -0.07500
C 	C 	0.61900 0.02550 0.50000 -0.08100
C 	C 	0.58800 0.95840 0.50000 0.32000
C 	C 	0.63090 0.12250 0.50000 -0.00900
H 	H 	0.61860 0.15190 0.50000 0.07400
C 	C 	0.59060 0.06030 0.50000 -0.01200
H 	H 	0.54810 0.04320 0.50000 0.07100
In	In	0.47509 0.16294 0.50000 1.99700
S 	S 	0.37505 0.30318 0.50000 0.10200
O 	O 	0.31264 0.38132 0.50000 -0.40400
O 	O 	0.40897 0.20203 0.50000 -0.41700
O 	O 	0.39771 0.47008 0.50000 -0.46500
C 	C 	0.45440 0.25540 0.50000 0.31900
O 	O 	0.50812 0.26424 0.50000 -0.43500
C 	C 	0.44630 0.30970 0.50000 -0.07500
C 	C 	0.40650 0.38100 0.50000 -0.08100
C 	C 	0.37040 0.41200 0.50000 0.32000
C 	C 	0.49160 0.36910 0.50000 -0.00900
H 	H 	0.53330 0.38140 0.50000 0.07400
C 	C 	0.46970 0.40940 0.50000 -0.01200
H 	H 	0.49510 0.45190 0.50000 0.07100
In	In	0.68785 0.52491 0.50000 1.99700
S 	S 	0.92813 0.62495 0.50000 0.10200
O 	O 	0.06868 0.68736 0.50000 -0.40400
O 	O 	0.79306 0.59103 0.50000 -0.41700
O 	O 	0.07237 0.60229 0.50000 -0.46500
C 	C 	0.80100 0.54560 0.50000 0.31800
O 	O 	0.75612 0.49188 0.50000 -0.43500
C 	C 	0.86340 0.55370 0.50000 -0.07500
C 	C 	0.97450 0.59350 0.50000 -0.08100
C 	C 	0.04160 0.62960 0.50000 0.32000
C 	C 	0.87750 0.50840 0.50000 -0.00900
H 	H 	0.84810 0.46670 0.50000 0.07400
C 	C 	0.93970 0.53030 0.50000 -0.01200
H 	H 	0.95680 0.50490 0.50000 0.07100
