data_ABUWOJ_clean

_audit_creation_method RASPA-1.0
_audit_creation_date 2022-9-14
_audit_author_name 'Xiaoqi Zhang'

_cell_length_a    14.4988
_cell_length_b    17.1659
_cell_length_c    18.1536
_cell_angle_alpha 90
_cell_angle_beta  90
_cell_angle_gamma 90
_cell_volume      36145.3

_symmetry_cell_setting          triclinic
_symmetry_space_group_name_Hall 'P 1'
_symmetry_space_group_name_H-M  'P 1'
_symmetry_Int_Tables_number     1

_symmetry_equiv_pos_as_xyz 'x,y,z'

loop_
_atom_site_label
_atom_site_type_symbol
_atom_site_fract_x
_atom_site_fract_y
_atom_site_fract_z
_atom_site_charge
Zn       Zn     0.222245000000     0.469740000000     0.225885000000     1.223      
Zn       Zn     0.326460000000     0.473525000000     0.198820000000     1.223      
Zn       Zn     0.277755000000     0.219740000000     0.024115000000     1.223      
Zn       Zn     0.173540000000     0.223525000000     0.051180000000     1.223      
Zn       Zn     0.277755000000     0.030260000000     0.274115000000     1.223      
Zn       Zn     0.173540000000     0.026475000000     0.301180000000     1.223      
Zn       Zn     0.222245000000     0.280260000000     0.475885000000     1.223      
Zn       Zn     0.326460000000     0.276475000000     0.448820000000     1.223      
Zn       Zn     0.027755000000     0.030260000000     0.475885000000     1.223      
Zn       Zn     0.423540000000     0.026475000000     0.448820000000     1.223      
Zn       Zn     0.472245000000     0.280260000000     0.274115000000     1.223      
Zn       Zn     0.076460000000     0.276475000000     0.301180000000     1.223      
Zn       Zn     0.472245000000     0.469740000000     0.024115000000     1.223      
Zn       Zn     0.076460000000     0.473525000000     0.051180000000     1.223      
Zn       Zn     0.027755000000     0.219740000000     0.225885000000     1.223      
Zn       Zn     0.423540000000     0.223525000000     0.198820000000     1.223      
Zn       Zn     0.222245000000     0.469740000000     0.725885000000     1.223      
Zn       Zn     0.326460000000     0.473525000000     0.698820000000     1.223      
Zn       Zn     0.277755000000     0.219740000000     0.524115000000     1.223      
Zn       Zn     0.173540000000     0.223525000000     0.551180000000     1.223      
Zn       Zn     0.277755000000     0.030260000000     0.774115000000     1.223      
Zn       Zn     0.173540000000     0.026475000000     0.801180000000     1.223      
Zn       Zn     0.222245000000     0.280260000000     0.975885000000     1.223      
Zn       Zn     0.326460000000     0.276475000000     0.948820000000     1.223      
Zn       Zn     0.027755000000     0.030260000000     0.975885000000     1.223      
Zn       Zn     0.423540000000     0.026475000000     0.948820000000     1.223      
Zn       Zn     0.472245000000     0.280260000000     0.774115000000     1.223      
Zn       Zn     0.076460000000     0.276475000000     0.801180000000     1.223      
Zn       Zn     0.472245000000     0.469740000000     0.524115000000     1.223      
Zn       Zn     0.076460000000     0.473525000000     0.551180000000     1.223      
Zn       Zn     0.027755000000     0.219740000000     0.725885000000     1.223      
Zn       Zn     0.423540000000     0.223525000000     0.698820000000     1.223      
Zn       Zn     0.222245000000     0.969740000000     0.225885000000     1.223      
Zn       Zn     0.326460000000     0.973525000000     0.198820000000     1.223      
Zn       Zn     0.277755000000     0.719740000000     0.024115000000     1.223      
Zn       Zn     0.173540000000     0.723525000000     0.051180000000     1.223      
Zn       Zn     0.277755000000     0.530260000000     0.274115000000     1.223      
Zn       Zn     0.173540000000     0.526475000000     0.301180000000     1.223      
Zn       Zn     0.222245000000     0.780260000000     0.475885000000     1.223      
Zn       Zn     0.326460000000     0.776475000000     0.448820000000     1.223      
Zn       Zn     0.027755000000     0.530260000000     0.475885000000     1.223      
Zn       Zn     0.423540000000     0.526475000000     0.448820000000     1.223      
Zn       Zn     0.472245000000     0.780260000000     0.274115000000     1.223      
Zn       Zn     0.076460000000     0.776475000000     0.301180000000     1.223      
Zn       Zn     0.472245000000     0.969740000000     0.024115000000     1.223      
Zn       Zn     0.076460000000     0.973525000000     0.051180000000     1.223      
Zn       Zn     0.027755000000     0.719740000000     0.225885000000     1.223      
Zn       Zn     0.423540000000     0.723525000000     0.198820000000     1.223      
Zn       Zn     0.222245000000     0.969740000000     0.725885000000     1.223      
Zn       Zn     0.326460000000     0.973525000000     0.698820000000     1.223      
Zn       Zn     0.277755000000     0.719740000000     0.524115000000     1.223      
Zn       Zn     0.173540000000     0.723525000000     0.551180000000     1.223      
Zn       Zn     0.277755000000     0.530260000000     0.774115000000     1.223      
Zn       Zn     0.173540000000     0.526475000000     0.801180000000     1.223      
Zn       Zn     0.222245000000     0.780260000000     0.975885000000     1.223      
Zn       Zn     0.326460000000     0.776475000000     0.948820000000     1.223      
Zn       Zn     0.027755000000     0.530260000000     0.975885000000     1.223      
Zn       Zn     0.423540000000     0.526475000000     0.948820000000     1.223      
Zn       Zn     0.472245000000     0.780260000000     0.774115000000     1.223      
Zn       Zn     0.076460000000     0.776475000000     0.801180000000     1.223      
Zn       Zn     0.472245000000     0.969740000000     0.524115000000     1.223      
Zn       Zn     0.076460000000     0.973525000000     0.551180000000     1.223      
Zn       Zn     0.027755000000     0.719740000000     0.725885000000     1.223      
Zn       Zn     0.423540000000     0.723525000000     0.698820000000     1.223      
Zn       Zn     0.722245000000     0.469740000000     0.225885000000     1.223      
Zn       Zn     0.826460000000     0.473525000000     0.198820000000     1.223      
Zn       Zn     0.777755000000     0.219740000000     0.024115000000     1.223      
Zn       Zn     0.673540000000     0.223525000000     0.051180000000     1.223      
Zn       Zn     0.777755000000     0.030260000000     0.274115000000     1.223      
Zn       Zn     0.673540000000     0.026475000000     0.301180000000     1.223      
Zn       Zn     0.722245000000     0.280260000000     0.475885000000     1.223      
Zn       Zn     0.826460000000     0.276475000000     0.448820000000     1.223      
Zn       Zn     0.527755000000     0.030260000000     0.475885000000     1.223      
Zn       Zn     0.923540000000     0.026475000000     0.448820000000     1.223      
Zn       Zn     0.972245000000     0.280260000000     0.274115000000     1.223      
Zn       Zn     0.576460000000     0.276475000000     0.301180000000     1.223      
Zn       Zn     0.972245000000     0.469740000000     0.024115000000     1.223      
Zn       Zn     0.576460000000     0.473525000000     0.051180000000     1.223      
Zn       Zn     0.527755000000     0.219740000000     0.225885000000     1.223      
Zn       Zn     0.923540000000     0.223525000000     0.198820000000     1.223      
Zn       Zn     0.722245000000     0.469740000000     0.725885000000     1.223      
Zn       Zn     0.826460000000     0.473525000000     0.698820000000     1.223      
Zn       Zn     0.777755000000     0.219740000000     0.524115000000     1.223      
Zn       Zn     0.673540000000     0.223525000000     0.551180000000     1.223      
Zn       Zn     0.777755000000     0.030260000000     0.774115000000     1.223      
Zn       Zn     0.673540000000     0.026475000000     0.801180000000     1.223      
Zn       Zn     0.722245000000     0.280260000000     0.975885000000     1.223      
Zn       Zn     0.826460000000     0.276475000000     0.948820000000     1.223      
Zn       Zn     0.527755000000     0.030260000000     0.975885000000     1.223      
Zn       Zn     0.923540000000     0.026475000000     0.948820000000     1.223      
Zn       Zn     0.972245000000     0.280260000000     0.774115000000     1.223      
Zn       Zn     0.576460000000     0.276475000000     0.801180000000     1.223      
Zn       Zn     0.972245000000     0.469740000000     0.524115000000     1.223      
Zn       Zn     0.576460000000     0.473525000000     0.551180000000     1.223      
Zn       Zn     0.527755000000     0.219740000000     0.725885000000     1.223      
Zn       Zn     0.923540000000     0.223525000000     0.698820000000     1.223      
Zn       Zn     0.722245000000     0.969740000000     0.225885000000     1.223      
Zn       Zn     0.826460000000     0.973525000000     0.198820000000     1.223      
Zn       Zn     0.777755000000     0.719740000000     0.024115000000     1.223      
Zn       Zn     0.673540000000     0.723525000000     0.051180000000     1.223      
Zn       Zn     0.777755000000     0.530260000000     0.274115000000     1.223      
Zn       Zn     0.673540000000     0.526475000000     0.301180000000     1.223      
Zn       Zn     0.722245000000     0.780260000000     0.475885000000     1.223      
Zn       Zn     0.826460000000     0.776475000000     0.448820000000     1.223      
Zn       Zn     0.527755000000     0.530260000000     0.475885000000     1.223      
Zn       Zn     0.923540000000     0.526475000000     0.448820000000     1.223      
Zn       Zn     0.972245000000     0.780260000000     0.274115000000     1.223      
Zn       Zn     0.576460000000     0.776475000000     0.301180000000     1.223      
Zn       Zn     0.972245000000     0.969740000000     0.024115000000     1.223      
Zn       Zn     0.576460000000     0.973525000000     0.051180000000     1.223      
Zn       Zn     0.527755000000     0.719740000000     0.225885000000     1.223      
Zn       Zn     0.923540000000     0.723525000000     0.198820000000     1.223      
Zn       Zn     0.722245000000     0.969740000000     0.725885000000     1.223      
Zn       Zn     0.826460000000     0.973525000000     0.698820000000     1.223      
Zn       Zn     0.777755000000     0.719740000000     0.524115000000     1.223      
Zn       Zn     0.673540000000     0.723525000000     0.551180000000     1.223      
Zn       Zn     0.777755000000     0.530260000000     0.774115000000     1.223      
Zn       Zn     0.673540000000     0.526475000000     0.801180000000     1.223      
Zn       Zn     0.722245000000     0.780260000000     0.975885000000     1.223      
Zn       Zn     0.826460000000     0.776475000000     0.948820000000     1.223      
Zn       Zn     0.527755000000     0.530260000000     0.975885000000     1.223      
Zn       Zn     0.923540000000     0.526475000000     0.948820000000     1.223      
Zn       Zn     0.972245000000     0.780260000000     0.774115000000     1.223      
Zn       Zn     0.576460000000     0.776475000000     0.801180000000     1.223      
Zn       Zn     0.972245000000     0.969740000000     0.524115000000     1.223      
Zn       Zn     0.576460000000     0.973525000000     0.551180000000     1.223      
Zn       Zn     0.527755000000     0.719740000000     0.725885000000     1.223      
Zn       Zn     0.923540000000     0.723525000000     0.698820000000     1.223      
H        H      0.304850000000     0.463800000000     0.260550000000     0.201      
H        H      0.184550000000     0.060400000000     0.151000000000     0.201      
H        H      0.169400000000     0.115900000000     0.116700000000     0.201      
H        H      0.298000000000     0.112600000000     0.076550000000     0.201      
H        H      0.313250000000     0.057900000000     0.111350000000     0.201      
H        H      0.467900000000     0.445550000000     0.276850000000     0.201      
H        H      0.460800000000     0.032550000000     0.203750000000     0.201      
H        H      0.195150000000     0.213800000000     0.489450000000     0.201      
H        H      0.315450000000     0.310400000000     0.099000000000     0.201      
H        H      0.330600000000     0.365900000000     0.133300000000     0.201      
H        H      0.202000000000     0.362600000000     0.173450000000     0.201      
H        H      0.186750000000     0.307900000000     0.138650000000     0.201      
H        H      0.032100000000     0.195550000000     0.473150000000     0.201      
H        H      0.039200000000     0.282550000000     0.046250000000     0.201      
H        H      0.195150000000     0.036200000000     0.239450000000     0.201      
H        H      0.315450000000     0.439600000000     0.349000000000     0.201      
H        H      0.330600000000     0.384100000000     0.383300000000     0.201      
H        H      0.202000000000     0.387400000000     0.423450000000     0.201      
H        H      0.186750000000     0.442100000000     0.388650000000     0.201      
H        H      0.032100000000     0.054450000000     0.223150000000     0.201      
H        H      0.039200000000     0.467450000000     0.296250000000     0.201      
H        H      0.304850000000     0.286200000000     0.010550000000     0.201      
H        H      0.184550000000     0.189600000000     0.401000000000     0.201      
H        H      0.169400000000     0.134100000000     0.366700000000     0.201      
H        H      0.298000000000     0.137400000000     0.326550000000     0.201      
H        H      0.313250000000     0.192100000000     0.361350000000     0.201      
H        H      0.467900000000     0.304450000000     0.026850000000     0.201      
H        H      0.460800000000     0.217450000000     0.453750000000     0.201      
H        H      0.445150000000     0.036200000000     0.010550000000     0.201      
H        H      0.065450000000     0.439600000000     0.401000000000     0.201      
H        H      0.080600000000     0.384100000000     0.366700000000     0.201      
H        H      0.452000000000     0.387400000000     0.326550000000     0.201      
H        H      0.436750000000     0.442100000000     0.361350000000     0.201      
H        H      0.282100000000     0.054450000000     0.026850000000     0.201      
H        H      0.289200000000     0.467450000000     0.453750000000     0.201      
H        H      0.054850000000     0.286200000000     0.239450000000     0.201      
H        H      0.434550000000     0.189600000000     0.349000000000     0.201      
H        H      0.419400000000     0.134100000000     0.383300000000     0.201      
H        H      0.048000000000     0.137400000000     0.423450000000     0.201      
H        H      0.063250000000     0.192100000000     0.388650000000     0.201      
H        H      0.217900000000     0.304450000000     0.223150000000     0.201      
H        H      0.210800000000     0.217450000000     0.296250000000     0.201      
H        H      0.054850000000     0.463800000000     0.489450000000     0.201      
H        H      0.434550000000     0.060400000000     0.099000000000     0.201      
H        H      0.419400000000     0.115900000000     0.133300000000     0.201      
H        H      0.048000000000     0.112600000000     0.173450000000     0.201      
H        H      0.063250000000     0.057900000000     0.138650000000     0.201      
H        H      0.217900000000     0.445550000000     0.473150000000     0.201      
H        H      0.210800000000     0.032550000000     0.046250000000     0.201      
H        H      0.445150000000     0.213800000000     0.260550000000     0.201      
H        H      0.065450000000     0.310400000000     0.151000000000     0.201      
H        H      0.080600000000     0.365900000000     0.116700000000     0.201      
H        H      0.452000000000     0.362600000000     0.076550000000     0.201      
H        H      0.436750000000     0.307900000000     0.111350000000     0.201      
H        H      0.282100000000     0.195550000000     0.276850000000     0.201      
H        H      0.289200000000     0.282550000000     0.203750000000     0.201      
H        H      0.304850000000     0.463800000000     0.760550000000     0.201      
H        H      0.184550000000     0.060400000000     0.651000000000     0.201      
H        H      0.169400000000     0.115900000000     0.616700000000     0.201      
H        H      0.298000000000     0.112600000000     0.576550000000     0.201      
H        H      0.313250000000     0.057900000000     0.611350000000     0.201      
H        H      0.467900000000     0.445550000000     0.776850000000     0.201      
H        H      0.460800000000     0.032550000000     0.703750000000     0.201      
H        H      0.195150000000     0.213800000000     0.989450000000     0.201      
H        H      0.315450000000     0.310400000000     0.599000000000     0.201      
H        H      0.330600000000     0.365900000000     0.633300000000     0.201      
H        H      0.202000000000     0.362600000000     0.673450000000     0.201      
H        H      0.186750000000     0.307900000000     0.638650000000     0.201      
H        H      0.032100000000     0.195550000000     0.973150000000     0.201      
H        H      0.039200000000     0.282550000000     0.546250000000     0.201      
H        H      0.195150000000     0.036200000000     0.739450000000     0.201      
H        H      0.315450000000     0.439600000000     0.849000000000     0.201      
H        H      0.330600000000     0.384100000000     0.883300000000     0.201      
H        H      0.202000000000     0.387400000000     0.923450000000     0.201      
H        H      0.186750000000     0.442100000000     0.888650000000     0.201      
H        H      0.032100000000     0.054450000000     0.723150000000     0.201      
H        H      0.039200000000     0.467450000000     0.796250000000     0.201      
H        H      0.304850000000     0.286200000000     0.510550000000     0.201      
H        H      0.184550000000     0.189600000000     0.901000000000     0.201      
H        H      0.169400000000     0.134100000000     0.866700000000     0.201      
H        H      0.298000000000     0.137400000000     0.826550000000     0.201      
H        H      0.313250000000     0.192100000000     0.861350000000     0.201      
H        H      0.467900000000     0.304450000000     0.526850000000     0.201      
H        H      0.460800000000     0.217450000000     0.953750000000     0.201      
H        H      0.445150000000     0.036200000000     0.510550000000     0.201      
H        H      0.065450000000     0.439600000000     0.901000000000     0.201      
H        H      0.080600000000     0.384100000000     0.866700000000     0.201      
H        H      0.452000000000     0.387400000000     0.826550000000     0.201      
H        H      0.436750000000     0.442100000000     0.861350000000     0.201      
H        H      0.282100000000     0.054450000000     0.526850000000     0.201      
H        H      0.289200000000     0.467450000000     0.953750000000     0.201      
H        H      0.054850000000     0.286200000000     0.739450000000     0.201      
H        H      0.434550000000     0.189600000000     0.849000000000     0.201      
H        H      0.419400000000     0.134100000000     0.883300000000     0.201      
H        H      0.048000000000     0.137400000000     0.923450000000     0.201      
H        H      0.063250000000     0.192100000000     0.888650000000     0.201      
H        H      0.217900000000     0.304450000000     0.723150000000     0.201      
H        H      0.210800000000     0.217450000000     0.796250000000     0.201      
H        H      0.054850000000     0.463800000000     0.989450000000     0.201      
H        H      0.434550000000     0.060400000000     0.599000000000     0.201      
H        H      0.419400000000     0.115900000000     0.633300000000     0.201      
H        H      0.048000000000     0.112600000000     0.673450000000     0.201      
H        H      0.063250000000     0.057900000000     0.638650000000     0.201      
H        H      0.217900000000     0.445550000000     0.973150000000     0.201      
H        H      0.210800000000     0.032550000000     0.546250000000     0.201      
H        H      0.445150000000     0.213800000000     0.760550000000     0.201      
H        H      0.065450000000     0.310400000000     0.651000000000     0.201      
H        H      0.080600000000     0.365900000000     0.616700000000     0.201      
H        H      0.452000000000     0.362600000000     0.576550000000     0.201      
H        H      0.436750000000     0.307900000000     0.611350000000     0.201      
H        H      0.282100000000     0.195550000000     0.776850000000     0.201      
H        H      0.289200000000     0.282550000000     0.703750000000     0.201      
H        H      0.304850000000     0.963800000000     0.260550000000     0.201      
H        H      0.184550000000     0.560400000000     0.151000000000     0.201      
H        H      0.169400000000     0.615900000000     0.116700000000     0.201      
H        H      0.298000000000     0.612600000000     0.076550000000     0.201      
H        H      0.313250000000     0.557900000000     0.111350000000     0.201      
H        H      0.467900000000     0.945550000000     0.276850000000     0.201      
H        H      0.460800000000     0.532550000000     0.203750000000     0.201      
H        H      0.195150000000     0.713800000000     0.489450000000     0.201      
H        H      0.315450000000     0.810400000000     0.099000000000     0.201      
H        H      0.330600000000     0.865900000000     0.133300000000     0.201      
H        H      0.202000000000     0.862600000000     0.173450000000     0.201      
H        H      0.186750000000     0.807900000000     0.138650000000     0.201      
H        H      0.032100000000     0.695550000000     0.473150000000     0.201      
H        H      0.039200000000     0.782550000000     0.046250000000     0.201      
H        H      0.195150000000     0.536200000000     0.239450000000     0.201      
H        H      0.315450000000     0.939600000000     0.349000000000     0.201      
H        H      0.330600000000     0.884100000000     0.383300000000     0.201      
H        H      0.202000000000     0.887400000000     0.423450000000     0.201      
H        H      0.186750000000     0.942100000000     0.388650000000     0.201      
H        H      0.032100000000     0.554450000000     0.223150000000     0.201      
H        H      0.039200000000     0.967450000000     0.296250000000     0.201      
H        H      0.304850000000     0.786200000000     0.010550000000     0.201      
H        H      0.184550000000     0.689600000000     0.401000000000     0.201      
H        H      0.169400000000     0.634100000000     0.366700000000     0.201      
H        H      0.298000000000     0.637400000000     0.326550000000     0.201      
H        H      0.313250000000     0.692100000000     0.361350000000     0.201      
H        H      0.467900000000     0.804450000000     0.026850000000     0.201      
H        H      0.460800000000     0.717450000000     0.453750000000     0.201      
H        H      0.445150000000     0.536200000000     0.010550000000     0.201      
H        H      0.065450000000     0.939600000000     0.401000000000     0.201      
H        H      0.080600000000     0.884100000000     0.366700000000     0.201      
H        H      0.452000000000     0.887400000000     0.326550000000     0.201      
H        H      0.436750000000     0.942100000000     0.361350000000     0.201      
H        H      0.282100000000     0.554450000000     0.026850000000     0.201      
H        H      0.289200000000     0.967450000000     0.453750000000     0.201      
H        H      0.054850000000     0.786200000000     0.239450000000     0.201      
H        H      0.434550000000     0.689600000000     0.349000000000     0.201      
H        H      0.419400000000     0.634100000000     0.383300000000     0.201      
H        H      0.048000000000     0.637400000000     0.423450000000     0.201      
H        H      0.063250000000     0.692100000000     0.388650000000     0.201      
H        H      0.217900000000     0.804450000000     0.223150000000     0.201      
H        H      0.210800000000     0.717450000000     0.296250000000     0.201      
H        H      0.054850000000     0.963800000000     0.489450000000     0.201      
H        H      0.434550000000     0.560400000000     0.099000000000     0.201      
H        H      0.419400000000     0.615900000000     0.133300000000     0.201      
H        H      0.048000000000     0.612600000000     0.173450000000     0.201      
H        H      0.063250000000     0.557900000000     0.138650000000     0.201      
H        H      0.217900000000     0.945550000000     0.473150000000     0.201      
H        H      0.210800000000     0.532550000000     0.046250000000     0.201      
H        H      0.445150000000     0.713800000000     0.260550000000     0.201      
H        H      0.065450000000     0.810400000000     0.151000000000     0.201      
H        H      0.080600000000     0.865900000000     0.116700000000     0.201      
H        H      0.452000000000     0.862600000000     0.076550000000     0.201      
H        H      0.436750000000     0.807900000000     0.111350000000     0.201      
H        H      0.282100000000     0.695550000000     0.276850000000     0.201      
H        H      0.289200000000     0.782550000000     0.203750000000     0.201      
H        H      0.304850000000     0.963800000000     0.760550000000     0.201      
H        H      0.184550000000     0.560400000000     0.651000000000     0.201      
H        H      0.169400000000     0.615900000000     0.616700000000     0.201      
H        H      0.298000000000     0.612600000000     0.576550000000     0.201      
H        H      0.313250000000     0.557900000000     0.611350000000     0.201      
H        H      0.467900000000     0.945550000000     0.776850000000     0.201      
H        H      0.460800000000     0.532550000000     0.703750000000     0.201      
H        H      0.195150000000     0.713800000000     0.989450000000     0.201      
H        H      0.315450000000     0.810400000000     0.599000000000     0.201      
H        H      0.330600000000     0.865900000000     0.633300000000     0.201      
H        H      0.202000000000     0.862600000000     0.673450000000     0.201      
H        H      0.186750000000     0.807900000000     0.638650000000     0.201      
H        H      0.032100000000     0.695550000000     0.973150000000     0.201      
H        H      0.039200000000     0.782550000000     0.546250000000     0.201      
H        H      0.195150000000     0.536200000000     0.739450000000     0.201      
H        H      0.315450000000     0.939600000000     0.849000000000     0.201      
H        H      0.330600000000     0.884100000000     0.883300000000     0.201      
H        H      0.202000000000     0.887400000000     0.923450000000     0.201      
H        H      0.186750000000     0.942100000000     0.888650000000     0.201      
H        H      0.032100000000     0.554450000000     0.723150000000     0.201      
H        H      0.039200000000     0.967450000000     0.796250000000     0.201      
H        H      0.304850000000     0.786200000000     0.510550000000     0.201      
H        H      0.184550000000     0.689600000000     0.901000000000     0.201      
H        H      0.169400000000     0.634100000000     0.866700000000     0.201      
H        H      0.298000000000     0.637400000000     0.826550000000     0.201      
H        H      0.313250000000     0.692100000000     0.861350000000     0.201      
H        H      0.467900000000     0.804450000000     0.526850000000     0.201      
H        H      0.460800000000     0.717450000000     0.953750000000     0.201      
H        H      0.445150000000     0.536200000000     0.510550000000     0.201      
H        H      0.065450000000     0.939600000000     0.901000000000     0.201      
H        H      0.080600000000     0.884100000000     0.866700000000     0.201      
H        H      0.452000000000     0.887400000000     0.826550000000     0.201      
H        H      0.436750000000     0.942100000000     0.861350000000     0.201      
H        H      0.282100000000     0.554450000000     0.526850000000     0.201      
H        H      0.289200000000     0.967450000000     0.953750000000     0.201      
H        H      0.054850000000     0.786200000000     0.739450000000     0.201      
H        H      0.434550000000     0.689600000000     0.849000000000     0.201      
H        H      0.419400000000     0.634100000000     0.883300000000     0.201      
H        H      0.048000000000     0.637400000000     0.923450000000     0.201      
H        H      0.063250000000     0.692100000000     0.888650000000     0.201      
H        H      0.217900000000     0.804450000000     0.723150000000     0.201      
H        H      0.210800000000     0.717450000000     0.796250000000     0.201      
H        H      0.054850000000     0.963800000000     0.989450000000     0.201      
H        H      0.434550000000     0.560400000000     0.599000000000     0.201      
H        H      0.419400000000     0.615900000000     0.633300000000     0.201      
H        H      0.048000000000     0.612600000000     0.673450000000     0.201      
H        H      0.063250000000     0.557900000000     0.638650000000     0.201      
H        H      0.217900000000     0.945550000000     0.973150000000     0.201      
H        H      0.210800000000     0.532550000000     0.546250000000     0.201      
H        H      0.445150000000     0.713800000000     0.760550000000     0.201      
H        H      0.065450000000     0.810400000000     0.651000000000     0.201      
H        H      0.080600000000     0.865900000000     0.616700000000     0.201      
H        H      0.452000000000     0.862600000000     0.576550000000     0.201      
H        H      0.436750000000     0.807900000000     0.611350000000     0.201      
H        H      0.282100000000     0.695550000000     0.776850000000     0.201      
H        H      0.289200000000     0.782550000000     0.703750000000     0.201      
H        H      0.804850000000     0.463800000000     0.260550000000     0.201      
H        H      0.684550000000     0.060400000000     0.151000000000     0.201      
H        H      0.669400000000     0.115900000000     0.116700000000     0.201      
H        H      0.798000000000     0.112600000000     0.076550000000     0.201      
H        H      0.813250000000     0.057900000000     0.111350000000     0.201      
H        H      0.967900000000     0.445550000000     0.276850000000     0.201      
H        H      0.960800000000     0.032550000000     0.203750000000     0.201      
H        H      0.695150000000     0.213800000000     0.489450000000     0.201      
H        H      0.815450000000     0.310400000000     0.099000000000     0.201      
H        H      0.830600000000     0.365900000000     0.133300000000     0.201      
H        H      0.702000000000     0.362600000000     0.173450000000     0.201      
H        H      0.686750000000     0.307900000000     0.138650000000     0.201      
H        H      0.532100000000     0.195550000000     0.473150000000     0.201      
H        H      0.539200000000     0.282550000000     0.046250000000     0.201      
H        H      0.695150000000     0.036200000000     0.239450000000     0.201      
H        H      0.815450000000     0.439600000000     0.349000000000     0.201      
H        H      0.830600000000     0.384100000000     0.383300000000     0.201      
H        H      0.702000000000     0.387400000000     0.423450000000     0.201      
H        H      0.686750000000     0.442100000000     0.388650000000     0.201      
H        H      0.532100000000     0.054450000000     0.223150000000     0.201      
H        H      0.539200000000     0.467450000000     0.296250000000     0.201      
H        H      0.804850000000     0.286200000000     0.010550000000     0.201      
H        H      0.684550000000     0.189600000000     0.401000000000     0.201      
H        H      0.669400000000     0.134100000000     0.366700000000     0.201      
H        H      0.798000000000     0.137400000000     0.326550000000     0.201      
H        H      0.813250000000     0.192100000000     0.361350000000     0.201      
H        H      0.967900000000     0.304450000000     0.026850000000     0.201      
H        H      0.960800000000     0.217450000000     0.453750000000     0.201      
H        H      0.945150000000     0.036200000000     0.010550000000     0.201      
H        H      0.565450000000     0.439600000000     0.401000000000     0.201      
H        H      0.580600000000     0.384100000000     0.366700000000     0.201      
H        H      0.952000000000     0.387400000000     0.326550000000     0.201      
H        H      0.936750000000     0.442100000000     0.361350000000     0.201      
H        H      0.782100000000     0.054450000000     0.026850000000     0.201      
H        H      0.789200000000     0.467450000000     0.453750000000     0.201      
H        H      0.554850000000     0.286200000000     0.239450000000     0.201      
H        H      0.934550000000     0.189600000000     0.349000000000     0.201      
H        H      0.919400000000     0.134100000000     0.383300000000     0.201      
H        H      0.548000000000     0.137400000000     0.423450000000     0.201      
H        H      0.563250000000     0.192100000000     0.388650000000     0.201      
H        H      0.717900000000     0.304450000000     0.223150000000     0.201      
H        H      0.710800000000     0.217450000000     0.296250000000     0.201      
H        H      0.554850000000     0.463800000000     0.489450000000     0.201      
H        H      0.934550000000     0.060400000000     0.099000000000     0.201      
H        H      0.919400000000     0.115900000000     0.133300000000     0.201      
H        H      0.548000000000     0.112600000000     0.173450000000     0.201      
H        H      0.563250000000     0.057900000000     0.138650000000     0.201      
H        H      0.717900000000     0.445550000000     0.473150000000     0.201      
H        H      0.710800000000     0.032550000000     0.046250000000     0.201      
H        H      0.945150000000     0.213800000000     0.260550000000     0.201      
H        H      0.565450000000     0.310400000000     0.151000000000     0.201      
H        H      0.580600000000     0.365900000000     0.116700000000     0.201      
H        H      0.952000000000     0.362600000000     0.076550000000     0.201      
H        H      0.936750000000     0.307900000000     0.111350000000     0.201      
H        H      0.782100000000     0.195550000000     0.276850000000     0.201      
H        H      0.789200000000     0.282550000000     0.203750000000     0.201      
H        H      0.804850000000     0.463800000000     0.760550000000     0.201      
H        H      0.684550000000     0.060400000000     0.651000000000     0.201      
H        H      0.669400000000     0.115900000000     0.616700000000     0.201      
H        H      0.798000000000     0.112600000000     0.576550000000     0.201      
H        H      0.813250000000     0.057900000000     0.611350000000     0.201      
H        H      0.967900000000     0.445550000000     0.776850000000     0.201      
H        H      0.960800000000     0.032550000000     0.703750000000     0.201      
H        H      0.695150000000     0.213800000000     0.989450000000     0.201      
H        H      0.815450000000     0.310400000000     0.599000000000     0.201      
H        H      0.830600000000     0.365900000000     0.633300000000     0.201      
H        H      0.702000000000     0.362600000000     0.673450000000     0.201      
H        H      0.686750000000     0.307900000000     0.638650000000     0.201      
H        H      0.532100000000     0.195550000000     0.973150000000     0.201      
H        H      0.539200000000     0.282550000000     0.546250000000     0.201      
H        H      0.695150000000     0.036200000000     0.739450000000     0.201      
H        H      0.815450000000     0.439600000000     0.849000000000     0.201      
H        H      0.830600000000     0.384100000000     0.883300000000     0.201      
H        H      0.702000000000     0.387400000000     0.923450000000     0.201      
H        H      0.686750000000     0.442100000000     0.888650000000     0.201      
H        H      0.532100000000     0.054450000000     0.723150000000     0.201      
H        H      0.539200000000     0.467450000000     0.796250000000     0.201      
H        H      0.804850000000     0.286200000000     0.510550000000     0.201      
H        H      0.684550000000     0.189600000000     0.901000000000     0.201      
H        H      0.669400000000     0.134100000000     0.866700000000     0.201      
H        H      0.798000000000     0.137400000000     0.826550000000     0.201      
H        H      0.813250000000     0.192100000000     0.861350000000     0.201      
H        H      0.967900000000     0.304450000000     0.526850000000     0.201      
H        H      0.960800000000     0.217450000000     0.953750000000     0.201      
H        H      0.945150000000     0.036200000000     0.510550000000     0.201      
H        H      0.565450000000     0.439600000000     0.901000000000     0.201      
H        H      0.580600000000     0.384100000000     0.866700000000     0.201      
H        H      0.952000000000     0.387400000000     0.826550000000     0.201      
H        H      0.936750000000     0.442100000000     0.861350000000     0.201      
H        H      0.782100000000     0.054450000000     0.526850000000     0.201      
H        H      0.789200000000     0.467450000000     0.953750000000     0.201      
H        H      0.554850000000     0.286200000000     0.739450000000     0.201      
H        H      0.934550000000     0.189600000000     0.849000000000     0.201      
H        H      0.919400000000     0.134100000000     0.883300000000     0.201      
H        H      0.548000000000     0.137400000000     0.923450000000     0.201      
H        H      0.563250000000     0.192100000000     0.888650000000     0.201      
H        H      0.717900000000     0.304450000000     0.723150000000     0.201      
H        H      0.710800000000     0.217450000000     0.796250000000     0.201      
H        H      0.554850000000     0.463800000000     0.989450000000     0.201      
H        H      0.934550000000     0.060400000000     0.599000000000     0.201      
H        H      0.919400000000     0.115900000000     0.633300000000     0.201      
H        H      0.548000000000     0.112600000000     0.673450000000     0.201      
H        H      0.563250000000     0.057900000000     0.638650000000     0.201      
H        H      0.717900000000     0.445550000000     0.973150000000     0.201      
H        H      0.710800000000     0.032550000000     0.546250000000     0.201      
H        H      0.945150000000     0.213800000000     0.760550000000     0.201      
H        H      0.565450000000     0.310400000000     0.651000000000     0.201      
H        H      0.580600000000     0.365900000000     0.616700000000     0.201      
H        H      0.952000000000     0.362600000000     0.576550000000     0.201      
H        H      0.936750000000     0.307900000000     0.611350000000     0.201      
H        H      0.782100000000     0.195550000000     0.776850000000     0.201      
H        H      0.789200000000     0.282550000000     0.703750000000     0.201      
H        H      0.804850000000     0.963800000000     0.260550000000     0.201      
H        H      0.684550000000     0.560400000000     0.151000000000     0.201      
H        H      0.669400000000     0.615900000000     0.116700000000     0.201      
H        H      0.798000000000     0.612600000000     0.076550000000     0.201      
H        H      0.813250000000     0.557900000000     0.111350000000     0.201      
H        H      0.967900000000     0.945550000000     0.276850000000     0.201      
H        H      0.960800000000     0.532550000000     0.203750000000     0.201      
H        H      0.695150000000     0.713800000000     0.489450000000     0.201      
H        H      0.815450000000     0.810400000000     0.099000000000     0.201      
H        H      0.830600000000     0.865900000000     0.133300000000     0.201      
H        H      0.702000000000     0.862600000000     0.173450000000     0.201      
H        H      0.686750000000     0.807900000000     0.138650000000     0.201      
H        H      0.532100000000     0.695550000000     0.473150000000     0.201      
H        H      0.539200000000     0.782550000000     0.046250000000     0.201      
H        H      0.695150000000     0.536200000000     0.239450000000     0.201      
H        H      0.815450000000     0.939600000000     0.349000000000     0.201      
H        H      0.830600000000     0.884100000000     0.383300000000     0.201      
H        H      0.702000000000     0.887400000000     0.423450000000     0.201      
H        H      0.686750000000     0.942100000000     0.388650000000     0.201      
H        H      0.532100000000     0.554450000000     0.223150000000     0.201      
H        H      0.539200000000     0.967450000000     0.296250000000     0.201      
H        H      0.804850000000     0.786200000000     0.010550000000     0.201      
H        H      0.684550000000     0.689600000000     0.401000000000     0.201      
H        H      0.669400000000     0.634100000000     0.366700000000     0.201      
H        H      0.798000000000     0.637400000000     0.326550000000     0.201      
H        H      0.813250000000     0.692100000000     0.361350000000     0.201      
H        H      0.967900000000     0.804450000000     0.026850000000     0.201      
H        H      0.960800000000     0.717450000000     0.453750000000     0.201      
H        H      0.945150000000     0.536200000000     0.010550000000     0.201      
H        H      0.565450000000     0.939600000000     0.401000000000     0.201      
H        H      0.580600000000     0.884100000000     0.366700000000     0.201      
H        H      0.952000000000     0.887400000000     0.326550000000     0.201      
H        H      0.936750000000     0.942100000000     0.361350000000     0.201      
H        H      0.782100000000     0.554450000000     0.026850000000     0.201      
H        H      0.789200000000     0.967450000000     0.453750000000     0.201      
H        H      0.554850000000     0.786200000000     0.239450000000     0.201      
H        H      0.934550000000     0.689600000000     0.349000000000     0.201      
H        H      0.919400000000     0.634100000000     0.383300000000     0.201      
H        H      0.548000000000     0.637400000000     0.423450000000     0.201      
H        H      0.563250000000     0.692100000000     0.388650000000     0.201      
H        H      0.717900000000     0.804450000000     0.223150000000     0.201      
H        H      0.710800000000     0.717450000000     0.296250000000     0.201      
H        H      0.554850000000     0.963800000000     0.489450000000     0.201      
H        H      0.934550000000     0.560400000000     0.099000000000     0.201      
H        H      0.919400000000     0.615900000000     0.133300000000     0.201      
H        H      0.548000000000     0.612600000000     0.173450000000     0.201      
H        H      0.563250000000     0.557900000000     0.138650000000     0.201      
H        H      0.717900000000     0.945550000000     0.473150000000     0.201      
H        H      0.710800000000     0.532550000000     0.046250000000     0.201      
H        H      0.945150000000     0.713800000000     0.260550000000     0.201      
H        H      0.565450000000     0.810400000000     0.151000000000     0.201      
H        H      0.580600000000     0.865900000000     0.116700000000     0.201      
H        H      0.952000000000     0.862600000000     0.076550000000     0.201      
H        H      0.936750000000     0.807900000000     0.111350000000     0.201      
H        H      0.782100000000     0.695550000000     0.276850000000     0.201      
H        H      0.789200000000     0.782550000000     0.203750000000     0.201      
H        H      0.804850000000     0.963800000000     0.760550000000     0.201      
H        H      0.684550000000     0.560400000000     0.651000000000     0.201      
H        H      0.669400000000     0.615900000000     0.616700000000     0.201      
H        H      0.798000000000     0.612600000000     0.576550000000     0.201      
H        H      0.813250000000     0.557900000000     0.611350000000     0.201      
H        H      0.967900000000     0.945550000000     0.776850000000     0.201      
H        H      0.960800000000     0.532550000000     0.703750000000     0.201      
H        H      0.695150000000     0.713800000000     0.989450000000     0.201      
H        H      0.815450000000     0.810400000000     0.599000000000     0.201      
H        H      0.830600000000     0.865900000000     0.633300000000     0.201      
H        H      0.702000000000     0.862600000000     0.673450000000     0.201      
H        H      0.686750000000     0.807900000000     0.638650000000     0.201      
H        H      0.532100000000     0.695550000000     0.973150000000     0.201      
H        H      0.539200000000     0.782550000000     0.546250000000     0.201      
H        H      0.695150000000     0.536200000000     0.739450000000     0.201      
H        H      0.815450000000     0.939600000000     0.849000000000     0.201      
H        H      0.830600000000     0.884100000000     0.883300000000     0.201      
H        H      0.702000000000     0.887400000000     0.923450000000     0.201      
H        H      0.686750000000     0.942100000000     0.888650000000     0.201      
H        H      0.532100000000     0.554450000000     0.723150000000     0.201      
H        H      0.539200000000     0.967450000000     0.796250000000     0.201      
H        H      0.804850000000     0.786200000000     0.510550000000     0.201      
H        H      0.684550000000     0.689600000000     0.901000000000     0.201      
H        H      0.669400000000     0.634100000000     0.866700000000     0.201      
H        H      0.798000000000     0.637400000000     0.826550000000     0.201      
H        H      0.813250000000     0.692100000000     0.861350000000     0.201      
H        H      0.967900000000     0.804450000000     0.526850000000     0.201      
H        H      0.960800000000     0.717450000000     0.953750000000     0.201      
H        H      0.945150000000     0.536200000000     0.510550000000     0.201      
H        H      0.565450000000     0.939600000000     0.901000000000     0.201      
H        H      0.580600000000     0.884100000000     0.866700000000     0.201      
H        H      0.952000000000     0.887400000000     0.826550000000     0.201      
H        H      0.936750000000     0.942100000000     0.861350000000     0.201      
H        H      0.782100000000     0.554450000000     0.526850000000     0.201      
H        H      0.789200000000     0.967450000000     0.953750000000     0.201      
H        H      0.554850000000     0.786200000000     0.739450000000     0.201      
H        H      0.934550000000     0.689600000000     0.849000000000     0.201      
H        H      0.919400000000     0.634100000000     0.883300000000     0.201      
H        H      0.548000000000     0.637400000000     0.923450000000     0.201      
H        H      0.563250000000     0.692100000000     0.888650000000     0.201      
H        H      0.717900000000     0.804450000000     0.723150000000     0.201      
H        H      0.710800000000     0.717450000000     0.796250000000     0.201      
H        H      0.554850000000     0.963800000000     0.989450000000     0.201      
H        H      0.934550000000     0.560400000000     0.599000000000     0.201      
H        H      0.919400000000     0.615900000000     0.633300000000     0.201      
H        H      0.548000000000     0.612600000000     0.673450000000     0.201      
H        H      0.563250000000     0.557900000000     0.638650000000     0.201      
H        H      0.717900000000     0.945550000000     0.973150000000     0.201      
H        H      0.710800000000     0.532550000000     0.546250000000     0.201      
H        H      0.945150000000     0.713800000000     0.760550000000     0.201      
H        H      0.565450000000     0.810400000000     0.651000000000     0.201      
H        H      0.580600000000     0.865900000000     0.616700000000     0.201      
H        H      0.952000000000     0.862600000000     0.576550000000     0.201      
H        H      0.936750000000     0.807900000000     0.611350000000     0.201      
H        H      0.782100000000     0.695550000000     0.776850000000     0.201      
H        H      0.789200000000     0.782550000000     0.703750000000     0.201      
C        C      0.261400000000     0.020450000000     0.160350000000     0.04       
C        C      0.250350000000     0.053800000000     0.135200000000     0.04       
C        C      0.207600000000     0.071050000000     0.136300000000     0.04       
C        C      0.198400000000     0.104300000000     0.115700000000     0.04       
C        C      0.232700000000     0.120100000000     0.093650000000     0.04       
C        C      0.275300000000     0.102400000000     0.091850000000     0.04       
C        C      0.284300000000     0.069550000000     0.112550000000     0.04       
C        C      0.224650000000     0.157100000000     0.072350000000     0.04       
C        C      0.409850000000     0.472550000000     0.227150000000     0.04       
C        C      0.457100000000     0.486750000000     0.238450000000     0.04       
C        C      0.480800000000     0.467550000000     0.266000000000     0.04       
C        C      0.476450000000     0.019400000000     0.222350000000     0.04       
C        C      0.238600000000     0.270450000000     0.089650000000     0.04       
C        C      0.249650000000     0.303800000000     0.114800000000     0.04       
C        C      0.292400000000     0.321050000000     0.113700000000     0.04       
C        C      0.301600000000     0.354300000000     0.134300000000     0.04       
C        C      0.267300000000     0.370100000000     0.156350000000     0.04       
C        C      0.224700000000     0.352400000000     0.158150000000     0.04       
C        C      0.215700000000     0.319550000000     0.137450000000     0.04       
C        C      0.275350000000     0.407100000000     0.177650000000     0.04       
C        C      0.090150000000     0.222550000000     0.022850000000     0.04       
C        C      0.042900000000     0.236750000000     0.011550000000     0.04       
C        C      0.019200000000     0.217550000000     0.484000000000     0.04       
C        C      0.023550000000     0.269400000000     0.027650000000     0.04       
C        C      0.238600000000     0.479550000000     0.339650000000     0.04       
C        C      0.249650000000     0.446200000000     0.364800000000     0.04       
C        C      0.292400000000     0.428950000000     0.363700000000     0.04       
C        C      0.301600000000     0.395700000000     0.384300000000     0.04       
C        C      0.267300000000     0.379900000000     0.406350000000     0.04       
C        C      0.224700000000     0.397600000000     0.408150000000     0.04       
C        C      0.215700000000     0.430450000000     0.387450000000     0.04       
C        C      0.275350000000     0.342900000000     0.427650000000     0.04       
C        C      0.090150000000     0.027450000000     0.272850000000     0.04       
C        C      0.042900000000     0.013250000000     0.261550000000     0.04       
C        C      0.019200000000     0.032450000000     0.234000000000     0.04       
C        C      0.023550000000     0.480600000000     0.277650000000     0.04       
C        C      0.261400000000     0.229550000000     0.410350000000     0.04       
C        C      0.250350000000     0.196200000000     0.385200000000     0.04       
C        C      0.207600000000     0.178950000000     0.386300000000     0.04       
C        C      0.198400000000     0.145700000000     0.365700000000     0.04       
C        C      0.232700000000     0.129900000000     0.343650000000     0.04       
C        C      0.275300000000     0.147600000000     0.341850000000     0.04       
C        C      0.284300000000     0.180450000000     0.362550000000     0.04       
C        C      0.224650000000     0.092900000000     0.322350000000     0.04       
C        C      0.409850000000     0.277450000000     0.477150000000     0.04       
C        C      0.457100000000     0.263250000000     0.488450000000     0.04       
C        C      0.480800000000     0.282450000000     0.016000000000     0.04       
C        C      0.476450000000     0.230600000000     0.472350000000     0.04       
C        C      0.488600000000     0.479550000000     0.410350000000     0.04       
C        C      0.499650000000     0.446200000000     0.385200000000     0.04       
C        C      0.042400000000     0.428950000000     0.386300000000     0.04       
C        C      0.051600000000     0.395700000000     0.365700000000     0.04       
C        C      0.017300000000     0.379900000000     0.343650000000     0.04       
C        C      0.474700000000     0.397600000000     0.341850000000     0.04       
C        C      0.465700000000     0.430450000000     0.362550000000     0.04       
C        C      0.025350000000     0.342900000000     0.322350000000     0.04       
C        C      0.340150000000     0.027450000000     0.477150000000     0.04       
C        C      0.292900000000     0.013250000000     0.488450000000     0.04       
C        C      0.269200000000     0.032450000000     0.016000000000     0.04       
C        C      0.273550000000     0.480600000000     0.472350000000     0.04       
C        C      0.011400000000     0.229550000000     0.339650000000     0.04       
C        C      0.000350000000     0.196200000000     0.364800000000     0.04       
C        C      0.457600000000     0.178950000000     0.363700000000     0.04       
C        C      0.448400000000     0.145700000000     0.384300000000     0.04       
C        C      0.482700000000     0.129900000000     0.406350000000     0.04       
C        C      0.025300000000     0.147600000000     0.408150000000     0.04       
C        C      0.034300000000     0.180450000000     0.387450000000     0.04       
C        C      0.474650000000     0.092900000000     0.427650000000     0.04       
C        C      0.159850000000     0.277450000000     0.272850000000     0.04       
C        C      0.207100000000     0.263250000000     0.261550000000     0.04       
C        C      0.230800000000     0.282450000000     0.234000000000     0.04       
C        C      0.226450000000     0.230600000000     0.277650000000     0.04       
C        C      0.011400000000     0.020450000000     0.089650000000     0.04       
C        C      0.000350000000     0.053800000000     0.114800000000     0.04       
C        C      0.457600000000     0.071050000000     0.113700000000     0.04       
C        C      0.448400000000     0.104300000000     0.134300000000     0.04       
C        C      0.482700000000     0.120100000000     0.156350000000     0.04       
C        C      0.025300000000     0.102400000000     0.158150000000     0.04       
C        C      0.034300000000     0.069550000000     0.137450000000     0.04       
C        C      0.474650000000     0.157100000000     0.177650000000     0.04       
C        C      0.159850000000     0.472550000000     0.022850000000     0.04       
C        C      0.207100000000     0.486750000000     0.011550000000     0.04       
C        C      0.230800000000     0.467550000000     0.484000000000     0.04       
C        C      0.226450000000     0.019400000000     0.027650000000     0.04       
C        C      0.488600000000     0.270450000000     0.160350000000     0.04       
C        C      0.499650000000     0.303800000000     0.135200000000     0.04       
C        C      0.042400000000     0.321050000000     0.136300000000     0.04       
C        C      0.051600000000     0.354300000000     0.115700000000     0.04       
C        C      0.017300000000     0.370100000000     0.093650000000     0.04       
C        C      0.474700000000     0.352400000000     0.091850000000     0.04       
C        C      0.465700000000     0.319550000000     0.112550000000     0.04       
C        C      0.025350000000     0.407100000000     0.072350000000     0.04       
C        C      0.340150000000     0.222550000000     0.227150000000     0.04       
C        C      0.292900000000     0.236750000000     0.238450000000     0.04       
C        C      0.269200000000     0.217550000000     0.266000000000     0.04       
C        C      0.273550000000     0.269400000000     0.222350000000     0.04       
C        C      0.261400000000     0.020450000000     0.660350000000     0.04       
C        C      0.250350000000     0.053800000000     0.635200000000     0.04       
C        C      0.207600000000     0.071050000000     0.636300000000     0.04       
C        C      0.198400000000     0.104300000000     0.615700000000     0.04       
C        C      0.232700000000     0.120100000000     0.593650000000     0.04       
C        C      0.275300000000     0.102400000000     0.591850000000     0.04       
C        C      0.284300000000     0.069550000000     0.612550000000     0.04       
C        C      0.224650000000     0.157100000000     0.572350000000     0.04       
C        C      0.409850000000     0.472550000000     0.727150000000     0.04       
C        C      0.457100000000     0.486750000000     0.738450000000     0.04       
C        C      0.480800000000     0.467550000000     0.766000000000     0.04       
C        C      0.476450000000     0.019400000000     0.722350000000     0.04       
C        C      0.238600000000     0.270450000000     0.589650000000     0.04       
C        C      0.249650000000     0.303800000000     0.614800000000     0.04       
C        C      0.292400000000     0.321050000000     0.613700000000     0.04       
C        C      0.301600000000     0.354300000000     0.634300000000     0.04       
C        C      0.267300000000     0.370100000000     0.656350000000     0.04       
C        C      0.224700000000     0.352400000000     0.658150000000     0.04       
C        C      0.215700000000     0.319550000000     0.637450000000     0.04       
C        C      0.275350000000     0.407100000000     0.677650000000     0.04       
C        C      0.090150000000     0.222550000000     0.522850000000     0.04       
C        C      0.042900000000     0.236750000000     0.511550000000     0.04       
C        C      0.019200000000     0.217550000000     0.984000000000     0.04       
C        C      0.023550000000     0.269400000000     0.527650000000     0.04       
C        C      0.238600000000     0.479550000000     0.839650000000     0.04       
C        C      0.249650000000     0.446200000000     0.864800000000     0.04       
C        C      0.292400000000     0.428950000000     0.863700000000     0.04       
C        C      0.301600000000     0.395700000000     0.884300000000     0.04       
C        C      0.267300000000     0.379900000000     0.906350000000     0.04       
C        C      0.224700000000     0.397600000000     0.908150000000     0.04       
C        C      0.215700000000     0.430450000000     0.887450000000     0.04       
C        C      0.275350000000     0.342900000000     0.927650000000     0.04       
C        C      0.090150000000     0.027450000000     0.772850000000     0.04       
C        C      0.042900000000     0.013250000000     0.761550000000     0.04       
C        C      0.019200000000     0.032450000000     0.734000000000     0.04       
C        C      0.023550000000     0.480600000000     0.777650000000     0.04       
C        C      0.261400000000     0.229550000000     0.910350000000     0.04       
C        C      0.250350000000     0.196200000000     0.885200000000     0.04       
C        C      0.207600000000     0.178950000000     0.886300000000     0.04       
C        C      0.198400000000     0.145700000000     0.865700000000     0.04       
C        C      0.232700000000     0.129900000000     0.843650000000     0.04       
C        C      0.275300000000     0.147600000000     0.841850000000     0.04       
C        C      0.284300000000     0.180450000000     0.862550000000     0.04       
C        C      0.224650000000     0.092900000000     0.822350000000     0.04       
C        C      0.409850000000     0.277450000000     0.977150000000     0.04       
C        C      0.457100000000     0.263250000000     0.988450000000     0.04       
C        C      0.480800000000     0.282450000000     0.516000000000     0.04       
C        C      0.476450000000     0.230600000000     0.972350000000     0.04       
C        C      0.488600000000     0.479550000000     0.910350000000     0.04       
C        C      0.499650000000     0.446200000000     0.885200000000     0.04       
C        C      0.042400000000     0.428950000000     0.886300000000     0.04       
C        C      0.051600000000     0.395700000000     0.865700000000     0.04       
C        C      0.017300000000     0.379900000000     0.843650000000     0.04       
C        C      0.474700000000     0.397600000000     0.841850000000     0.04       
C        C      0.465700000000     0.430450000000     0.862550000000     0.04       
C        C      0.025350000000     0.342900000000     0.822350000000     0.04       
C        C      0.340150000000     0.027450000000     0.977150000000     0.04       
C        C      0.292900000000     0.013250000000     0.988450000000     0.04       
C        C      0.269200000000     0.032450000000     0.516000000000     0.04       
C        C      0.273550000000     0.480600000000     0.972350000000     0.04       
C        C      0.011400000000     0.229550000000     0.839650000000     0.04       
C        C      0.000350000000     0.196200000000     0.864800000000     0.04       
C        C      0.457600000000     0.178950000000     0.863700000000     0.04       
C        C      0.448400000000     0.145700000000     0.884300000000     0.04       
C        C      0.482700000000     0.129900000000     0.906350000000     0.04       
C        C      0.025300000000     0.147600000000     0.908150000000     0.04       
C        C      0.034300000000     0.180450000000     0.887450000000     0.04       
C        C      0.474650000000     0.092900000000     0.927650000000     0.04       
C        C      0.159850000000     0.277450000000     0.772850000000     0.04       
C        C      0.207100000000     0.263250000000     0.761550000000     0.04       
C        C      0.230800000000     0.282450000000     0.734000000000     0.04       
C        C      0.226450000000     0.230600000000     0.777650000000     0.04       
C        C      0.011400000000     0.020450000000     0.589650000000     0.04       
C        C      0.000350000000     0.053800000000     0.614800000000     0.04       
C        C      0.457600000000     0.071050000000     0.613700000000     0.04       
C        C      0.448400000000     0.104300000000     0.634300000000     0.04       
C        C      0.482700000000     0.120100000000     0.656350000000     0.04       
C        C      0.025300000000     0.102400000000     0.658150000000     0.04       
C        C      0.034300000000     0.069550000000     0.637450000000     0.04       
C        C      0.474650000000     0.157100000000     0.677650000000     0.04       
C        C      0.159850000000     0.472550000000     0.522850000000     0.04       
C        C      0.207100000000     0.486750000000     0.511550000000     0.04       
C        C      0.230800000000     0.467550000000     0.984000000000     0.04       
C        C      0.226450000000     0.019400000000     0.527650000000     0.04       
C        C      0.488600000000     0.270450000000     0.660350000000     0.04       
C        C      0.499650000000     0.303800000000     0.635200000000     0.04       
C        C      0.042400000000     0.321050000000     0.636300000000     0.04       
C        C      0.051600000000     0.354300000000     0.615700000000     0.04       
C        C      0.017300000000     0.370100000000     0.593650000000     0.04       
C        C      0.474700000000     0.352400000000     0.591850000000     0.04       
C        C      0.465700000000     0.319550000000     0.612550000000     0.04       
C        C      0.025350000000     0.407100000000     0.572350000000     0.04       
C        C      0.340150000000     0.222550000000     0.727150000000     0.04       
C        C      0.292900000000     0.236750000000     0.738450000000     0.04       
C        C      0.269200000000     0.217550000000     0.766000000000     0.04       
C        C      0.273550000000     0.269400000000     0.722350000000     0.04       
C        C      0.261400000000     0.520450000000     0.160350000000     0.04       
C        C      0.250350000000     0.553800000000     0.135200000000     0.04       
C        C      0.207600000000     0.571050000000     0.136300000000     0.04       
C        C      0.198400000000     0.604300000000     0.115700000000     0.04       
C        C      0.232700000000     0.620100000000     0.093650000000     0.04       
C        C      0.275300000000     0.602400000000     0.091850000000     0.04       
C        C      0.284300000000     0.569550000000     0.112550000000     0.04       
C        C      0.224650000000     0.657100000000     0.072350000000     0.04       
C        C      0.409850000000     0.972550000000     0.227150000000     0.04       
C        C      0.457100000000     0.986750000000     0.238450000000     0.04       
C        C      0.480800000000     0.967550000000     0.266000000000     0.04       
C        C      0.476450000000     0.519400000000     0.222350000000     0.04       
C        C      0.238600000000     0.770450000000     0.089650000000     0.04       
C        C      0.249650000000     0.803800000000     0.114800000000     0.04       
C        C      0.292400000000     0.821050000000     0.113700000000     0.04       
C        C      0.301600000000     0.854300000000     0.134300000000     0.04       
C        C      0.267300000000     0.870100000000     0.156350000000     0.04       
C        C      0.224700000000     0.852400000000     0.158150000000     0.04       
C        C      0.215700000000     0.819550000000     0.137450000000     0.04       
C        C      0.275350000000     0.907100000000     0.177650000000     0.04       
C        C      0.090150000000     0.722550000000     0.022850000000     0.04       
C        C      0.042900000000     0.736750000000     0.011550000000     0.04       
C        C      0.019200000000     0.717550000000     0.484000000000     0.04       
C        C      0.023550000000     0.769400000000     0.027650000000     0.04       
C        C      0.238600000000     0.979550000000     0.339650000000     0.04       
C        C      0.249650000000     0.946200000000     0.364800000000     0.04       
C        C      0.292400000000     0.928950000000     0.363700000000     0.04       
C        C      0.301600000000     0.895700000000     0.384300000000     0.04       
C        C      0.267300000000     0.879900000000     0.406350000000     0.04       
C        C      0.224700000000     0.897600000000     0.408150000000     0.04       
C        C      0.215700000000     0.930450000000     0.387450000000     0.04       
C        C      0.275350000000     0.842900000000     0.427650000000     0.04       
C        C      0.090150000000     0.527450000000     0.272850000000     0.04       
C        C      0.042900000000     0.513250000000     0.261550000000     0.04       
C        C      0.019200000000     0.532450000000     0.234000000000     0.04       
C        C      0.023550000000     0.980600000000     0.277650000000     0.04       
C        C      0.261400000000     0.729550000000     0.410350000000     0.04       
C        C      0.250350000000     0.696200000000     0.385200000000     0.04       
C        C      0.207600000000     0.678950000000     0.386300000000     0.04       
C        C      0.198400000000     0.645700000000     0.365700000000     0.04       
C        C      0.232700000000     0.629900000000     0.343650000000     0.04       
C        C      0.275300000000     0.647600000000     0.341850000000     0.04       
C        C      0.284300000000     0.680450000000     0.362550000000     0.04       
C        C      0.224650000000     0.592900000000     0.322350000000     0.04       
C        C      0.409850000000     0.777450000000     0.477150000000     0.04       
C        C      0.457100000000     0.763250000000     0.488450000000     0.04       
C        C      0.480800000000     0.782450000000     0.016000000000     0.04       
C        C      0.476450000000     0.730600000000     0.472350000000     0.04       
C        C      0.488600000000     0.979550000000     0.410350000000     0.04       
C        C      0.499650000000     0.946200000000     0.385200000000     0.04       
C        C      0.042400000000     0.928950000000     0.386300000000     0.04       
C        C      0.051600000000     0.895700000000     0.365700000000     0.04       
C        C      0.017300000000     0.879900000000     0.343650000000     0.04       
C        C      0.474700000000     0.897600000000     0.341850000000     0.04       
C        C      0.465700000000     0.930450000000     0.362550000000     0.04       
C        C      0.025350000000     0.842900000000     0.322350000000     0.04       
C        C      0.340150000000     0.527450000000     0.477150000000     0.04       
C        C      0.292900000000     0.513250000000     0.488450000000     0.04       
C        C      0.269200000000     0.532450000000     0.016000000000     0.04       
C        C      0.273550000000     0.980600000000     0.472350000000     0.04       
C        C      0.011400000000     0.729550000000     0.339650000000     0.04       
C        C      0.000350000000     0.696200000000     0.364800000000     0.04       
C        C      0.457600000000     0.678950000000     0.363700000000     0.04       
C        C      0.448400000000     0.645700000000     0.384300000000     0.04       
C        C      0.482700000000     0.629900000000     0.406350000000     0.04       
C        C      0.025300000000     0.647600000000     0.408150000000     0.04       
C        C      0.034300000000     0.680450000000     0.387450000000     0.04       
C        C      0.474650000000     0.592900000000     0.427650000000     0.04       
C        C      0.159850000000     0.777450000000     0.272850000000     0.04       
C        C      0.207100000000     0.763250000000     0.261550000000     0.04       
C        C      0.230800000000     0.782450000000     0.234000000000     0.04       
C        C      0.226450000000     0.730600000000     0.277650000000     0.04       
C        C      0.011400000000     0.520450000000     0.089650000000     0.04       
C        C      0.000350000000     0.553800000000     0.114800000000     0.04       
C        C      0.457600000000     0.571050000000     0.113700000000     0.04       
C        C      0.448400000000     0.604300000000     0.134300000000     0.04       
C        C      0.482700000000     0.620100000000     0.156350000000     0.04       
C        C      0.025300000000     0.602400000000     0.158150000000     0.04       
C        C      0.034300000000     0.569550000000     0.137450000000     0.04       
C        C      0.474650000000     0.657100000000     0.177650000000     0.04       
C        C      0.159850000000     0.972550000000     0.022850000000     0.04       
C        C      0.207100000000     0.986750000000     0.011550000000     0.04       
C        C      0.230800000000     0.967550000000     0.484000000000     0.04       
C        C      0.226450000000     0.519400000000     0.027650000000     0.04       
C        C      0.488600000000     0.770450000000     0.160350000000     0.04       
C        C      0.499650000000     0.803800000000     0.135200000000     0.04       
C        C      0.042400000000     0.821050000000     0.136300000000     0.04       
C        C      0.051600000000     0.854300000000     0.115700000000     0.04       
C        C      0.017300000000     0.870100000000     0.093650000000     0.04       
C        C      0.474700000000     0.852400000000     0.091850000000     0.04       
C        C      0.465700000000     0.819550000000     0.112550000000     0.04       
C        C      0.025350000000     0.907100000000     0.072350000000     0.04       
C        C      0.340150000000     0.722550000000     0.227150000000     0.04       
C        C      0.292900000000     0.736750000000     0.238450000000     0.04       
C        C      0.269200000000     0.717550000000     0.266000000000     0.04       
C        C      0.273550000000     0.769400000000     0.222350000000     0.04       
C        C      0.261400000000     0.520450000000     0.660350000000     0.04       
C        C      0.250350000000     0.553800000000     0.635200000000     0.04       
C        C      0.207600000000     0.571050000000     0.636300000000     0.04       
C        C      0.198400000000     0.604300000000     0.615700000000     0.04       
C        C      0.232700000000     0.620100000000     0.593650000000     0.04       
C        C      0.275300000000     0.602400000000     0.591850000000     0.04       
C        C      0.284300000000     0.569550000000     0.612550000000     0.04       
C        C      0.224650000000     0.657100000000     0.572350000000     0.04       
C        C      0.409850000000     0.972550000000     0.727150000000     0.04       
C        C      0.457100000000     0.986750000000     0.738450000000     0.04       
C        C      0.480800000000     0.967550000000     0.766000000000     0.04       
C        C      0.476450000000     0.519400000000     0.722350000000     0.04       
C        C      0.238600000000     0.770450000000     0.589650000000     0.04       
C        C      0.249650000000     0.803800000000     0.614800000000     0.04       
C        C      0.292400000000     0.821050000000     0.613700000000     0.04       
C        C      0.301600000000     0.854300000000     0.634300000000     0.04       
C        C      0.267300000000     0.870100000000     0.656350000000     0.04       
C        C      0.224700000000     0.852400000000     0.658150000000     0.04       
C        C      0.215700000000     0.819550000000     0.637450000000     0.04       
C        C      0.275350000000     0.907100000000     0.677650000000     0.04       
C        C      0.090150000000     0.722550000000     0.522850000000     0.04       
C        C      0.042900000000     0.736750000000     0.511550000000     0.04       
C        C      0.019200000000     0.717550000000     0.984000000000     0.04       
C        C      0.023550000000     0.769400000000     0.527650000000     0.04       
C        C      0.238600000000     0.979550000000     0.839650000000     0.04       
C        C      0.249650000000     0.946200000000     0.864800000000     0.04       
C        C      0.292400000000     0.928950000000     0.863700000000     0.04       
C        C      0.301600000000     0.895700000000     0.884300000000     0.04       
C        C      0.267300000000     0.879900000000     0.906350000000     0.04       
C        C      0.224700000000     0.897600000000     0.908150000000     0.04       
C        C      0.215700000000     0.930450000000     0.887450000000     0.04       
C        C      0.275350000000     0.842900000000     0.927650000000     0.04       
C        C      0.090150000000     0.527450000000     0.772850000000     0.04       
C        C      0.042900000000     0.513250000000     0.761550000000     0.04       
C        C      0.019200000000     0.532450000000     0.734000000000     0.04       
C        C      0.023550000000     0.980600000000     0.777650000000     0.04       
C        C      0.261400000000     0.729550000000     0.910350000000     0.04       
C        C      0.250350000000     0.696200000000     0.885200000000     0.04       
C        C      0.207600000000     0.678950000000     0.886300000000     0.04       
C        C      0.198400000000     0.645700000000     0.865700000000     0.04       
C        C      0.232700000000     0.629900000000     0.843650000000     0.04       
C        C      0.275300000000     0.647600000000     0.841850000000     0.04       
C        C      0.284300000000     0.680450000000     0.862550000000     0.04       
C        C      0.224650000000     0.592900000000     0.822350000000     0.04       
C        C      0.409850000000     0.777450000000     0.977150000000     0.04       
C        C      0.457100000000     0.763250000000     0.988450000000     0.04       
C        C      0.480800000000     0.782450000000     0.516000000000     0.04       
C        C      0.476450000000     0.730600000000     0.972350000000     0.04       
C        C      0.488600000000     0.979550000000     0.910350000000     0.04       
C        C      0.499650000000     0.946200000000     0.885200000000     0.04       
C        C      0.042400000000     0.928950000000     0.886300000000     0.04       
C        C      0.051600000000     0.895700000000     0.865700000000     0.04       
C        C      0.017300000000     0.879900000000     0.843650000000     0.04       
C        C      0.474700000000     0.897600000000     0.841850000000     0.04       
C        C      0.465700000000     0.930450000000     0.862550000000     0.04       
C        C      0.025350000000     0.842900000000     0.822350000000     0.04       
C        C      0.340150000000     0.527450000000     0.977150000000     0.04       
C        C      0.292900000000     0.513250000000     0.988450000000     0.04       
C        C      0.269200000000     0.532450000000     0.516000000000     0.04       
C        C      0.273550000000     0.980600000000     0.972350000000     0.04       
C        C      0.011400000000     0.729550000000     0.839650000000     0.04       
C        C      0.000350000000     0.696200000000     0.864800000000     0.04       
C        C      0.457600000000     0.678950000000     0.863700000000     0.04       
C        C      0.448400000000     0.645700000000     0.884300000000     0.04       
C        C      0.482700000000     0.629900000000     0.906350000000     0.04       
C        C      0.025300000000     0.647600000000     0.908150000000     0.04       
C        C      0.034300000000     0.680450000000     0.887450000000     0.04       
C        C      0.474650000000     0.592900000000     0.927650000000     0.04       
C        C      0.159850000000     0.777450000000     0.772850000000     0.04       
C        C      0.207100000000     0.763250000000     0.761550000000     0.04       
C        C      0.230800000000     0.782450000000     0.734000000000     0.04       
C        C      0.226450000000     0.730600000000     0.777650000000     0.04       
C        C      0.011400000000     0.520450000000     0.589650000000     0.04       
C        C      0.000350000000     0.553800000000     0.614800000000     0.04       
C        C      0.457600000000     0.571050000000     0.613700000000     0.04       
C        C      0.448400000000     0.604300000000     0.634300000000     0.04       
C        C      0.482700000000     0.620100000000     0.656350000000     0.04       
C        C      0.025300000000     0.602400000000     0.658150000000     0.04       
C        C      0.034300000000     0.569550000000     0.637450000000     0.04       
C        C      0.474650000000     0.657100000000     0.677650000000     0.04       
C        C      0.159850000000     0.972550000000     0.522850000000     0.04       
C        C      0.207100000000     0.986750000000     0.511550000000     0.04       
C        C      0.230800000000     0.967550000000     0.984000000000     0.04       
C        C      0.226450000000     0.519400000000     0.527650000000     0.04       
C        C      0.488600000000     0.770450000000     0.660350000000     0.04       
C        C      0.499650000000     0.803800000000     0.635200000000     0.04       
C        C      0.042400000000     0.821050000000     0.636300000000     0.04       
C        C      0.051600000000     0.854300000000     0.615700000000     0.04       
C        C      0.017300000000     0.870100000000     0.593650000000     0.04       
C        C      0.474700000000     0.852400000000     0.591850000000     0.04       
C        C      0.465700000000     0.819550000000     0.612550000000     0.04       
C        C      0.025350000000     0.907100000000     0.572350000000     0.04       
C        C      0.340150000000     0.722550000000     0.727150000000     0.04       
C        C      0.292900000000     0.736750000000     0.738450000000     0.04       
C        C      0.269200000000     0.717550000000     0.766000000000     0.04       
C        C      0.273550000000     0.769400000000     0.722350000000     0.04       
C        C      0.761400000000     0.020450000000     0.160350000000     0.04       
C        C      0.750350000000     0.053800000000     0.135200000000     0.04       
C        C      0.707600000000     0.071050000000     0.136300000000     0.04       
C        C      0.698400000000     0.104300000000     0.115700000000     0.04       
C        C      0.732700000000     0.120100000000     0.093650000000     0.04       
C        C      0.775300000000     0.102400000000     0.091850000000     0.04       
C        C      0.784300000000     0.069550000000     0.112550000000     0.04       
C        C      0.724650000000     0.157100000000     0.072350000000     0.04       
C        C      0.909850000000     0.472550000000     0.227150000000     0.04       
C        C      0.957100000000     0.486750000000     0.238450000000     0.04       
C        C      0.980800000000     0.467550000000     0.266000000000     0.04       
C        C      0.976450000000     0.019400000000     0.222350000000     0.04       
C        C      0.738600000000     0.270450000000     0.089650000000     0.04       
C        C      0.749650000000     0.303800000000     0.114800000000     0.04       
C        C      0.792400000000     0.321050000000     0.113700000000     0.04       
C        C      0.801600000000     0.354300000000     0.134300000000     0.04       
C        C      0.767300000000     0.370100000000     0.156350000000     0.04       
C        C      0.724700000000     0.352400000000     0.158150000000     0.04       
C        C      0.715700000000     0.319550000000     0.137450000000     0.04       
C        C      0.775350000000     0.407100000000     0.177650000000     0.04       
C        C      0.590150000000     0.222550000000     0.022850000000     0.04       
C        C      0.542900000000     0.236750000000     0.011550000000     0.04       
C        C      0.519200000000     0.217550000000     0.484000000000     0.04       
C        C      0.523550000000     0.269400000000     0.027650000000     0.04       
C        C      0.738600000000     0.479550000000     0.339650000000     0.04       
C        C      0.749650000000     0.446200000000     0.364800000000     0.04       
C        C      0.792400000000     0.428950000000     0.363700000000     0.04       
C        C      0.801600000000     0.395700000000     0.384300000000     0.04       
C        C      0.767300000000     0.379900000000     0.406350000000     0.04       
C        C      0.724700000000     0.397600000000     0.408150000000     0.04       
C        C      0.715700000000     0.430450000000     0.387450000000     0.04       
C        C      0.775350000000     0.342900000000     0.427650000000     0.04       
C        C      0.590150000000     0.027450000000     0.272850000000     0.04       
C        C      0.542900000000     0.013250000000     0.261550000000     0.04       
C        C      0.519200000000     0.032450000000     0.234000000000     0.04       
C        C      0.523550000000     0.480600000000     0.277650000000     0.04       
C        C      0.761400000000     0.229550000000     0.410350000000     0.04       
C        C      0.750350000000     0.196200000000     0.385200000000     0.04       
C        C      0.707600000000     0.178950000000     0.386300000000     0.04       
C        C      0.698400000000     0.145700000000     0.365700000000     0.04       
C        C      0.732700000000     0.129900000000     0.343650000000     0.04       
C        C      0.775300000000     0.147600000000     0.341850000000     0.04       
C        C      0.784300000000     0.180450000000     0.362550000000     0.04       
C        C      0.724650000000     0.092900000000     0.322350000000     0.04       
C        C      0.909850000000     0.277450000000     0.477150000000     0.04       
C        C      0.957100000000     0.263250000000     0.488450000000     0.04       
C        C      0.980800000000     0.282450000000     0.016000000000     0.04       
C        C      0.976450000000     0.230600000000     0.472350000000     0.04       
C        C      0.988600000000     0.479550000000     0.410350000000     0.04       
C        C      0.999650000000     0.446200000000     0.385200000000     0.04       
C        C      0.542400000000     0.428950000000     0.386300000000     0.04       
C        C      0.551600000000     0.395700000000     0.365700000000     0.04       
C        C      0.517300000000     0.379900000000     0.343650000000     0.04       
C        C      0.974700000000     0.397600000000     0.341850000000     0.04       
C        C      0.965700000000     0.430450000000     0.362550000000     0.04       
C        C      0.525350000000     0.342900000000     0.322350000000     0.04       
C        C      0.840150000000     0.027450000000     0.477150000000     0.04       
C        C      0.792900000000     0.013250000000     0.488450000000     0.04       
C        C      0.769200000000     0.032450000000     0.016000000000     0.04       
C        C      0.773550000000     0.480600000000     0.472350000000     0.04       
C        C      0.511400000000     0.229550000000     0.339650000000     0.04       
C        C      0.500350000000     0.196200000000     0.364800000000     0.04       
C        C      0.957600000000     0.178950000000     0.363700000000     0.04       
C        C      0.948400000000     0.145700000000     0.384300000000     0.04       
C        C      0.982700000000     0.129900000000     0.406350000000     0.04       
C        C      0.525300000000     0.147600000000     0.408150000000     0.04       
C        C      0.534300000000     0.180450000000     0.387450000000     0.04       
C        C      0.974650000000     0.092900000000     0.427650000000     0.04       
C        C      0.659850000000     0.277450000000     0.272850000000     0.04       
C        C      0.707100000000     0.263250000000     0.261550000000     0.04       
C        C      0.730800000000     0.282450000000     0.234000000000     0.04       
C        C      0.726450000000     0.230600000000     0.277650000000     0.04       
C        C      0.511400000000     0.020450000000     0.089650000000     0.04       
C        C      0.500350000000     0.053800000000     0.114800000000     0.04       
C        C      0.957600000000     0.071050000000     0.113700000000     0.04       
C        C      0.948400000000     0.104300000000     0.134300000000     0.04       
C        C      0.982700000000     0.120100000000     0.156350000000     0.04       
C        C      0.525300000000     0.102400000000     0.158150000000     0.04       
C        C      0.534300000000     0.069550000000     0.137450000000     0.04       
C        C      0.974650000000     0.157100000000     0.177650000000     0.04       
C        C      0.659850000000     0.472550000000     0.022850000000     0.04       
C        C      0.707100000000     0.486750000000     0.011550000000     0.04       
C        C      0.730800000000     0.467550000000     0.484000000000     0.04       
C        C      0.726450000000     0.019400000000     0.027650000000     0.04       
C        C      0.988600000000     0.270450000000     0.160350000000     0.04       
C        C      0.999650000000     0.303800000000     0.135200000000     0.04       
C        C      0.542400000000     0.321050000000     0.136300000000     0.04       
C        C      0.551600000000     0.354300000000     0.115700000000     0.04       
C        C      0.517300000000     0.370100000000     0.093650000000     0.04       
C        C      0.974700000000     0.352400000000     0.091850000000     0.04       
C        C      0.965700000000     0.319550000000     0.112550000000     0.04       
C        C      0.525350000000     0.407100000000     0.072350000000     0.04       
C        C      0.840150000000     0.222550000000     0.227150000000     0.04       
C        C      0.792900000000     0.236750000000     0.238450000000     0.04       
C        C      0.769200000000     0.217550000000     0.266000000000     0.04       
C        C      0.773550000000     0.269400000000     0.222350000000     0.04       
C        C      0.761400000000     0.020450000000     0.660350000000     0.04       
C        C      0.750350000000     0.053800000000     0.635200000000     0.04       
C        C      0.707600000000     0.071050000000     0.636300000000     0.04       
C        C      0.698400000000     0.104300000000     0.615700000000     0.04       
C        C      0.732700000000     0.120100000000     0.593650000000     0.04       
C        C      0.775300000000     0.102400000000     0.591850000000     0.04       
C        C      0.784300000000     0.069550000000     0.612550000000     0.04       
C        C      0.724650000000     0.157100000000     0.572350000000     0.04       
C        C      0.909850000000     0.472550000000     0.727150000000     0.04       
C        C      0.957100000000     0.486750000000     0.738450000000     0.04       
C        C      0.980800000000     0.467550000000     0.766000000000     0.04       
C        C      0.976450000000     0.019400000000     0.722350000000     0.04       
C        C      0.738600000000     0.270450000000     0.589650000000     0.04       
C        C      0.749650000000     0.303800000000     0.614800000000     0.04       
C        C      0.792400000000     0.321050000000     0.613700000000     0.04       
C        C      0.801600000000     0.354300000000     0.634300000000     0.04       
C        C      0.767300000000     0.370100000000     0.656350000000     0.04       
C        C      0.724700000000     0.352400000000     0.658150000000     0.04       
C        C      0.715700000000     0.319550000000     0.637450000000     0.04       
C        C      0.775350000000     0.407100000000     0.677650000000     0.04       
C        C      0.590150000000     0.222550000000     0.522850000000     0.04       
C        C      0.542900000000     0.236750000000     0.511550000000     0.04       
C        C      0.519200000000     0.217550000000     0.984000000000     0.04       
C        C      0.523550000000     0.269400000000     0.527650000000     0.04       
C        C      0.738600000000     0.479550000000     0.839650000000     0.04       
C        C      0.749650000000     0.446200000000     0.864800000000     0.04       
C        C      0.792400000000     0.428950000000     0.863700000000     0.04       
C        C      0.801600000000     0.395700000000     0.884300000000     0.04       
C        C      0.767300000000     0.379900000000     0.906350000000     0.04       
C        C      0.724700000000     0.397600000000     0.908150000000     0.04       
C        C      0.715700000000     0.430450000000     0.887450000000     0.04       
C        C      0.775350000000     0.342900000000     0.927650000000     0.04       
C        C      0.590150000000     0.027450000000     0.772850000000     0.04       
C        C      0.542900000000     0.013250000000     0.761550000000     0.04       
C        C      0.519200000000     0.032450000000     0.734000000000     0.04       
C        C      0.523550000000     0.480600000000     0.777650000000     0.04       
C        C      0.761400000000     0.229550000000     0.910350000000     0.04       
C        C      0.750350000000     0.196200000000     0.885200000000     0.04       
C        C      0.707600000000     0.178950000000     0.886300000000     0.04       
C        C      0.698400000000     0.145700000000     0.865700000000     0.04       
C        C      0.732700000000     0.129900000000     0.843650000000     0.04       
C        C      0.775300000000     0.147600000000     0.841850000000     0.04       
C        C      0.784300000000     0.180450000000     0.862550000000     0.04       
C        C      0.724650000000     0.092900000000     0.822350000000     0.04       
C        C      0.909850000000     0.277450000000     0.977150000000     0.04       
C        C      0.957100000000     0.263250000000     0.988450000000     0.04       
C        C      0.980800000000     0.282450000000     0.516000000000     0.04       
C        C      0.976450000000     0.230600000000     0.972350000000     0.04       
C        C      0.988600000000     0.479550000000     0.910350000000     0.04       
C        C      0.999650000000     0.446200000000     0.885200000000     0.04       
C        C      0.542400000000     0.428950000000     0.886300000000     0.04       
C        C      0.551600000000     0.395700000000     0.865700000000     0.04       
C        C      0.517300000000     0.379900000000     0.843650000000     0.04       
C        C      0.974700000000     0.397600000000     0.841850000000     0.04       
C        C      0.965700000000     0.430450000000     0.862550000000     0.04       
C        C      0.525350000000     0.342900000000     0.822350000000     0.04       
C        C      0.840150000000     0.027450000000     0.977150000000     0.04       
C        C      0.792900000000     0.013250000000     0.988450000000     0.04       
C        C      0.769200000000     0.032450000000     0.516000000000     0.04       
C        C      0.773550000000     0.480600000000     0.972350000000     0.04       
C        C      0.511400000000     0.229550000000     0.839650000000     0.04       
C        C      0.500350000000     0.196200000000     0.864800000000     0.04       
C        C      0.957600000000     0.178950000000     0.863700000000     0.04       
C        C      0.948400000000     0.145700000000     0.884300000000     0.04       
C        C      0.982700000000     0.129900000000     0.906350000000     0.04       
C        C      0.525300000000     0.147600000000     0.908150000000     0.04       
C        C      0.534300000000     0.180450000000     0.887450000000     0.04       
C        C      0.974650000000     0.092900000000     0.927650000000     0.04       
C        C      0.659850000000     0.277450000000     0.772850000000     0.04       
C        C      0.707100000000     0.263250000000     0.761550000000     0.04       
C        C      0.730800000000     0.282450000000     0.734000000000     0.04       
C        C      0.726450000000     0.230600000000     0.777650000000     0.04       
C        C      0.511400000000     0.020450000000     0.589650000000     0.04       
C        C      0.500350000000     0.053800000000     0.614800000000     0.04       
C        C      0.957600000000     0.071050000000     0.613700000000     0.04       
C        C      0.948400000000     0.104300000000     0.634300000000     0.04       
C        C      0.982700000000     0.120100000000     0.656350000000     0.04       
C        C      0.525300000000     0.102400000000     0.658150000000     0.04       
C        C      0.534300000000     0.069550000000     0.637450000000     0.04       
C        C      0.974650000000     0.157100000000     0.677650000000     0.04       
C        C      0.659850000000     0.472550000000     0.522850000000     0.04       
C        C      0.707100000000     0.486750000000     0.511550000000     0.04       
C        C      0.730800000000     0.467550000000     0.984000000000     0.04       
C        C      0.726450000000     0.019400000000     0.527650000000     0.04       
C        C      0.988600000000     0.270450000000     0.660350000000     0.04       
C        C      0.999650000000     0.303800000000     0.635200000000     0.04       
C        C      0.542400000000     0.321050000000     0.636300000000     0.04       
C        C      0.551600000000     0.354300000000     0.615700000000     0.04       
C        C      0.517300000000     0.370100000000     0.593650000000     0.04       
C        C      0.974700000000     0.352400000000     0.591850000000     0.04       
C        C      0.965700000000     0.319550000000     0.612550000000     0.04       
C        C      0.525350000000     0.407100000000     0.572350000000     0.04       
C        C      0.840150000000     0.222550000000     0.727150000000     0.04       
C        C      0.792900000000     0.236750000000     0.738450000000     0.04       
C        C      0.769200000000     0.217550000000     0.766000000000     0.04       
C        C      0.773550000000     0.269400000000     0.722350000000     0.04       
C        C      0.761400000000     0.520450000000     0.160350000000     0.04       
C        C      0.750350000000     0.553800000000     0.135200000000     0.04       
C        C      0.707600000000     0.571050000000     0.136300000000     0.04       
C        C      0.698400000000     0.604300000000     0.115700000000     0.04       
C        C      0.732700000000     0.620100000000     0.093650000000     0.04       
C        C      0.775300000000     0.602400000000     0.091850000000     0.04       
C        C      0.784300000000     0.569550000000     0.112550000000     0.04       
C        C      0.724650000000     0.657100000000     0.072350000000     0.04       
C        C      0.909850000000     0.972550000000     0.227150000000     0.04       
C        C      0.957100000000     0.986750000000     0.238450000000     0.04       
C        C      0.980800000000     0.967550000000     0.266000000000     0.04       
C        C      0.976450000000     0.519400000000     0.222350000000     0.04       
C        C      0.738600000000     0.770450000000     0.089650000000     0.04       
C        C      0.749650000000     0.803800000000     0.114800000000     0.04       
C        C      0.792400000000     0.821050000000     0.113700000000     0.04       
C        C      0.801600000000     0.854300000000     0.134300000000     0.04       
C        C      0.767300000000     0.870100000000     0.156350000000     0.04       
C        C      0.724700000000     0.852400000000     0.158150000000     0.04       
C        C      0.715700000000     0.819550000000     0.137450000000     0.04       
C        C      0.775350000000     0.907100000000     0.177650000000     0.04       
C        C      0.590150000000     0.722550000000     0.022850000000     0.04       
C        C      0.542900000000     0.736750000000     0.011550000000     0.04       
C        C      0.519200000000     0.717550000000     0.484000000000     0.04       
C        C      0.523550000000     0.769400000000     0.027650000000     0.04       
C        C      0.738600000000     0.979550000000     0.339650000000     0.04       
C        C      0.749650000000     0.946200000000     0.364800000000     0.04       
C        C      0.792400000000     0.928950000000     0.363700000000     0.04       
C        C      0.801600000000     0.895700000000     0.384300000000     0.04       
C        C      0.767300000000     0.879900000000     0.406350000000     0.04       
C        C      0.724700000000     0.897600000000     0.408150000000     0.04       
C        C      0.715700000000     0.930450000000     0.387450000000     0.04       
C        C      0.775350000000     0.842900000000     0.427650000000     0.04       
C        C      0.590150000000     0.527450000000     0.272850000000     0.04       
C        C      0.542900000000     0.513250000000     0.261550000000     0.04       
C        C      0.519200000000     0.532450000000     0.234000000000     0.04       
C        C      0.523550000000     0.980600000000     0.277650000000     0.04       
C        C      0.761400000000     0.729550000000     0.410350000000     0.04       
C        C      0.750350000000     0.696200000000     0.385200000000     0.04       
C        C      0.707600000000     0.678950000000     0.386300000000     0.04       
C        C      0.698400000000     0.645700000000     0.365700000000     0.04       
C        C      0.732700000000     0.629900000000     0.343650000000     0.04       
C        C      0.775300000000     0.647600000000     0.341850000000     0.04       
C        C      0.784300000000     0.680450000000     0.362550000000     0.04       
C        C      0.724650000000     0.592900000000     0.322350000000     0.04       
C        C      0.909850000000     0.777450000000     0.477150000000     0.04       
C        C      0.957100000000     0.763250000000     0.488450000000     0.04       
C        C      0.980800000000     0.782450000000     0.016000000000     0.04       
C        C      0.976450000000     0.730600000000     0.472350000000     0.04       
C        C      0.988600000000     0.979550000000     0.410350000000     0.04       
C        C      0.999650000000     0.946200000000     0.385200000000     0.04       
C        C      0.542400000000     0.928950000000     0.386300000000     0.04       
C        C      0.551600000000     0.895700000000     0.365700000000     0.04       
C        C      0.517300000000     0.879900000000     0.343650000000     0.04       
C        C      0.974700000000     0.897600000000     0.341850000000     0.04       
C        C      0.965700000000     0.930450000000     0.362550000000     0.04       
C        C      0.525350000000     0.842900000000     0.322350000000     0.04       
C        C      0.840150000000     0.527450000000     0.477150000000     0.04       
C        C      0.792900000000     0.513250000000     0.488450000000     0.04       
C        C      0.769200000000     0.532450000000     0.016000000000     0.04       
C        C      0.773550000000     0.980600000000     0.472350000000     0.04       
C        C      0.511400000000     0.729550000000     0.339650000000     0.04       
C        C      0.500350000000     0.696200000000     0.364800000000     0.04       
C        C      0.957600000000     0.678950000000     0.363700000000     0.04       
C        C      0.948400000000     0.645700000000     0.384300000000     0.04       
C        C      0.982700000000     0.629900000000     0.406350000000     0.04       
C        C      0.525300000000     0.647600000000     0.408150000000     0.04       
C        C      0.534300000000     0.680450000000     0.387450000000     0.04       
C        C      0.974650000000     0.592900000000     0.427650000000     0.04       
C        C      0.659850000000     0.777450000000     0.272850000000     0.04       
C        C      0.707100000000     0.763250000000     0.261550000000     0.04       
C        C      0.730800000000     0.782450000000     0.234000000000     0.04       
C        C      0.726450000000     0.730600000000     0.277650000000     0.04       
C        C      0.511400000000     0.520450000000     0.089650000000     0.04       
C        C      0.500350000000     0.553800000000     0.114800000000     0.04       
C        C      0.957600000000     0.571050000000     0.113700000000     0.04       
C        C      0.948400000000     0.604300000000     0.134300000000     0.04       
C        C      0.982700000000     0.620100000000     0.156350000000     0.04       
C        C      0.525300000000     0.602400000000     0.158150000000     0.04       
C        C      0.534300000000     0.569550000000     0.137450000000     0.04       
C        C      0.974650000000     0.657100000000     0.177650000000     0.04       
C        C      0.659850000000     0.972550000000     0.022850000000     0.04       
C        C      0.707100000000     0.986750000000     0.011550000000     0.04       
C        C      0.730800000000     0.967550000000     0.484000000000     0.04       
C        C      0.726450000000     0.519400000000     0.027650000000     0.04       
C        C      0.988600000000     0.770450000000     0.160350000000     0.04       
C        C      0.999650000000     0.803800000000     0.135200000000     0.04       
C        C      0.542400000000     0.821050000000     0.136300000000     0.04       
C        C      0.551600000000     0.854300000000     0.115700000000     0.04       
C        C      0.517300000000     0.870100000000     0.093650000000     0.04       
C        C      0.974700000000     0.852400000000     0.091850000000     0.04       
C        C      0.965700000000     0.819550000000     0.112550000000     0.04       
C        C      0.525350000000     0.907100000000     0.072350000000     0.04       
C        C      0.840150000000     0.722550000000     0.227150000000     0.04       
C        C      0.792900000000     0.736750000000     0.238450000000     0.04       
C        C      0.769200000000     0.717550000000     0.266000000000     0.04       
C        C      0.773550000000     0.769400000000     0.222350000000     0.04       
C        C      0.761400000000     0.520450000000     0.660350000000     0.04       
C        C      0.750350000000     0.553800000000     0.635200000000     0.04       
C        C      0.707600000000     0.571050000000     0.636300000000     0.04       
C        C      0.698400000000     0.604300000000     0.615700000000     0.04       
C        C      0.732700000000     0.620100000000     0.593650000000     0.04       
C        C      0.775300000000     0.602400000000     0.591850000000     0.04       
C        C      0.784300000000     0.569550000000     0.612550000000     0.04       
C        C      0.724650000000     0.657100000000     0.572350000000     0.04       
C        C      0.909850000000     0.972550000000     0.727150000000     0.04       
C        C      0.957100000000     0.986750000000     0.738450000000     0.04       
C        C      0.980800000000     0.967550000000     0.766000000000     0.04       
C        C      0.976450000000     0.519400000000     0.722350000000     0.04       
C        C      0.738600000000     0.770450000000     0.589650000000     0.04       
C        C      0.749650000000     0.803800000000     0.614800000000     0.04       
C        C      0.792400000000     0.821050000000     0.613700000000     0.04       
C        C      0.801600000000     0.854300000000     0.634300000000     0.04       
C        C      0.767300000000     0.870100000000     0.656350000000     0.04       
C        C      0.724700000000     0.852400000000     0.658150000000     0.04       
C        C      0.715700000000     0.819550000000     0.637450000000     0.04       
C        C      0.775350000000     0.907100000000     0.677650000000     0.04       
C        C      0.590150000000     0.722550000000     0.522850000000     0.04       
C        C      0.542900000000     0.736750000000     0.511550000000     0.04       
C        C      0.519200000000     0.717550000000     0.984000000000     0.04       
C        C      0.523550000000     0.769400000000     0.527650000000     0.04       
C        C      0.738600000000     0.979550000000     0.839650000000     0.04       
C        C      0.749650000000     0.946200000000     0.864800000000     0.04       
C        C      0.792400000000     0.928950000000     0.863700000000     0.04       
C        C      0.801600000000     0.895700000000     0.884300000000     0.04       
C        C      0.767300000000     0.879900000000     0.906350000000     0.04       
C        C      0.724700000000     0.897600000000     0.908150000000     0.04       
C        C      0.715700000000     0.930450000000     0.887450000000     0.04       
C        C      0.775350000000     0.842900000000     0.927650000000     0.04       
C        C      0.590150000000     0.527450000000     0.772850000000     0.04       
C        C      0.542900000000     0.513250000000     0.761550000000     0.04       
C        C      0.519200000000     0.532450000000     0.734000000000     0.04       
C        C      0.523550000000     0.980600000000     0.777650000000     0.04       
C        C      0.761400000000     0.729550000000     0.910350000000     0.04       
C        C      0.750350000000     0.696200000000     0.885200000000     0.04       
C        C      0.707600000000     0.678950000000     0.886300000000     0.04       
C        C      0.698400000000     0.645700000000     0.865700000000     0.04       
C        C      0.732700000000     0.629900000000     0.843650000000     0.04       
C        C      0.775300000000     0.647600000000     0.841850000000     0.04       
C        C      0.784300000000     0.680450000000     0.862550000000     0.04       
C        C      0.724650000000     0.592900000000     0.822350000000     0.04       
C        C      0.909850000000     0.777450000000     0.977150000000     0.04       
C        C      0.957100000000     0.763250000000     0.988450000000     0.04       
C        C      0.980800000000     0.782450000000     0.516000000000     0.04       
C        C      0.976450000000     0.730600000000     0.972350000000     0.04       
C        C      0.988600000000     0.979550000000     0.910350000000     0.04       
C        C      0.999650000000     0.946200000000     0.885200000000     0.04       
C        C      0.542400000000     0.928950000000     0.886300000000     0.04       
C        C      0.551600000000     0.895700000000     0.865700000000     0.04       
C        C      0.517300000000     0.879900000000     0.843650000000     0.04       
C        C      0.974700000000     0.897600000000     0.841850000000     0.04       
C        C      0.965700000000     0.930450000000     0.862550000000     0.04       
C        C      0.525350000000     0.842900000000     0.822350000000     0.04       
C        C      0.840150000000     0.527450000000     0.977150000000     0.04       
C        C      0.792900000000     0.513250000000     0.988450000000     0.04       
C        C      0.769200000000     0.532450000000     0.516000000000     0.04       
C        C      0.773550000000     0.980600000000     0.972350000000     0.04       
C        C      0.511400000000     0.729550000000     0.839650000000     0.04       
C        C      0.500350000000     0.696200000000     0.864800000000     0.04       
C        C      0.957600000000     0.678950000000     0.863700000000     0.04       
C        C      0.948400000000     0.645700000000     0.884300000000     0.04       
C        C      0.982700000000     0.629900000000     0.906350000000     0.04       
C        C      0.525300000000     0.647600000000     0.908150000000     0.04       
C        C      0.534300000000     0.680450000000     0.887450000000     0.04       
C        C      0.974650000000     0.592900000000     0.927650000000     0.04       
C        C      0.659850000000     0.777450000000     0.772850000000     0.04       
C        C      0.707100000000     0.763250000000     0.761550000000     0.04       
C        C      0.730800000000     0.782450000000     0.734000000000     0.04       
C        C      0.726450000000     0.730600000000     0.777650000000     0.04       
C        C      0.511400000000     0.520450000000     0.589650000000     0.04       
C        C      0.500350000000     0.553800000000     0.614800000000     0.04       
C        C      0.957600000000     0.571050000000     0.613700000000     0.04       
C        C      0.948400000000     0.604300000000     0.634300000000     0.04       
C        C      0.982700000000     0.620100000000     0.656350000000     0.04       
C        C      0.525300000000     0.602400000000     0.658150000000     0.04       
C        C      0.534300000000     0.569550000000     0.637450000000     0.04       
C        C      0.974650000000     0.657100000000     0.677650000000     0.04       
C        C      0.659850000000     0.972550000000     0.522850000000     0.04       
C        C      0.707100000000     0.986750000000     0.511550000000     0.04       
C        C      0.730800000000     0.967550000000     0.984000000000     0.04       
C        C      0.726450000000     0.519400000000     0.527650000000     0.04       
C        C      0.988600000000     0.770450000000     0.660350000000     0.04       
C        C      0.999650000000     0.803800000000     0.635200000000     0.04       
C        C      0.542400000000     0.821050000000     0.636300000000     0.04       
C        C      0.551600000000     0.854300000000     0.615700000000     0.04       
C        C      0.517300000000     0.870100000000     0.593650000000     0.04       
C        C      0.974700000000     0.852400000000     0.591850000000     0.04       
C        C      0.965700000000     0.819550000000     0.612550000000     0.04       
C        C      0.525350000000     0.907100000000     0.572350000000     0.04       
C        C      0.840150000000     0.722550000000     0.727150000000     0.04       
C        C      0.792900000000     0.736750000000     0.738450000000     0.04       
C        C      0.769200000000     0.717550000000     0.766000000000     0.04       
C        C      0.773550000000     0.769400000000     0.722350000000     0.04       
O        O      0.290350000000     0.480150000000     0.243550000000     0.046      
O        O      0.229550000000     0.007150000000     0.179900000000     0.046      
O        O      0.302200000000     0.007950000000     0.160000000000     0.046      
O        O      0.257800000000     0.171250000000     0.055750000000     0.046      
O        O      0.184250000000     0.171550000000     0.073600000000     0.046      
O        O      0.390700000000     0.490300000000     0.201650000000     0.046      
O        O      0.392400000000     0.444650000000     0.243750000000     0.046      
O        O      0.209650000000     0.230150000000     0.006450000000     0.046      
O        O      0.270450000000     0.257150000000     0.070100000000     0.046      
O        O      0.197800000000     0.257950000000     0.090000000000     0.046      
O        O      0.242200000000     0.421250000000     0.194250000000     0.046      
O        O      0.315750000000     0.421550000000     0.176400000000     0.046      
O        O      0.109300000000     0.240300000000     0.048350000000     0.046      
O        O      0.107600000000     0.194650000000     0.006250000000     0.046      
O        O      0.209650000000     0.019850000000     0.256450000000     0.046      
O        O      0.270450000000     0.492850000000     0.320100000000     0.046      
O        O      0.197800000000     0.492050000000     0.340000000000     0.046      
O        O      0.242200000000     0.328750000000     0.444250000000     0.046      
O        O      0.315750000000     0.328450000000     0.426400000000     0.046      
O        O      0.109300000000     0.009700000000     0.298350000000     0.046      
O        O      0.107600000000     0.055350000000     0.256250000000     0.046      
O        O      0.290350000000     0.269850000000     0.493550000000     0.046      
O        O      0.229550000000     0.242850000000     0.429900000000     0.046      
O        O      0.302200000000     0.242050000000     0.410000000000     0.046      
O        O      0.257800000000     0.078750000000     0.305750000000     0.046      
O        O      0.184250000000     0.078450000000     0.323600000000     0.046      
O        O      0.390700000000     0.259700000000     0.451650000000     0.046      
O        O      0.392400000000     0.305350000000     0.493750000000     0.046      
O        O      0.459650000000     0.019850000000     0.493550000000     0.046      
O        O      0.020450000000     0.492850000000     0.429900000000     0.046      
O        O      0.447800000000     0.492050000000     0.410000000000     0.046      
O        O      0.492200000000     0.328750000000     0.305750000000     0.046      
O        O      0.065750000000     0.328450000000     0.323600000000     0.046      
O        O      0.359300000000     0.009700000000     0.451650000000     0.046      
O        O      0.357600000000     0.055350000000     0.493750000000     0.046      
O        O      0.040350000000     0.269850000000     0.256450000000     0.046      
O        O      0.479550000000     0.242850000000     0.320100000000     0.046      
O        O      0.052200000000     0.242050000000     0.340000000000     0.046      
O        O      0.007800000000     0.078750000000     0.444250000000     0.046      
O        O      0.434250000000     0.078450000000     0.426400000000     0.046      
O        O      0.140700000000     0.259700000000     0.298350000000     0.046      
O        O      0.142400000000     0.305350000000     0.256250000000     0.046      
O        O      0.040350000000     0.480150000000     0.006450000000     0.046      
O        O      0.479550000000     0.007150000000     0.070100000000     0.046      
O        O      0.052200000000     0.007950000000     0.090000000000     0.046      
O        O      0.007800000000     0.171250000000     0.194250000000     0.046      
O        O      0.434250000000     0.171550000000     0.176400000000     0.046      
O        O      0.140700000000     0.490300000000     0.048350000000     0.046      
O        O      0.142400000000     0.444650000000     0.006250000000     0.046      
O        O      0.459650000000     0.230150000000     0.243550000000     0.046      
O        O      0.020450000000     0.257150000000     0.179900000000     0.046      
O        O      0.447800000000     0.257950000000     0.160000000000     0.046      
O        O      0.492200000000     0.421250000000     0.055750000000     0.046      
O        O      0.065750000000     0.421550000000     0.073600000000     0.046      
O        O      0.359300000000     0.240300000000     0.201650000000     0.046      
O        O      0.357600000000     0.194650000000     0.243750000000     0.046      
O        O      0.290350000000     0.480150000000     0.743550000000     0.046      
O        O      0.229550000000     0.007150000000     0.679900000000     0.046      
O        O      0.302200000000     0.007950000000     0.660000000000     0.046      
O        O      0.257800000000     0.171250000000     0.555750000000     0.046      
O        O      0.184250000000     0.171550000000     0.573600000000     0.046      
O        O      0.390700000000     0.490300000000     0.701650000000     0.046      
O        O      0.392400000000     0.444650000000     0.743750000000     0.046      
O        O      0.209650000000     0.230150000000     0.506450000000     0.046      
O        O      0.270450000000     0.257150000000     0.570100000000     0.046      
O        O      0.197800000000     0.257950000000     0.590000000000     0.046      
O        O      0.242200000000     0.421250000000     0.694250000000     0.046      
O        O      0.315750000000     0.421550000000     0.676400000000     0.046      
O        O      0.109300000000     0.240300000000     0.548350000000     0.046      
O        O      0.107600000000     0.194650000000     0.506250000000     0.046      
O        O      0.209650000000     0.019850000000     0.756450000000     0.046      
O        O      0.270450000000     0.492850000000     0.820100000000     0.046      
O        O      0.197800000000     0.492050000000     0.840000000000     0.046      
O        O      0.242200000000     0.328750000000     0.944250000000     0.046      
O        O      0.315750000000     0.328450000000     0.926400000000     0.046      
O        O      0.109300000000     0.009700000000     0.798350000000     0.046      
O        O      0.107600000000     0.055350000000     0.756250000000     0.046      
O        O      0.290350000000     0.269850000000     0.993550000000     0.046      
O        O      0.229550000000     0.242850000000     0.929900000000     0.046      
O        O      0.302200000000     0.242050000000     0.910000000000     0.046      
O        O      0.257800000000     0.078750000000     0.805750000000     0.046      
O        O      0.184250000000     0.078450000000     0.823600000000     0.046      
O        O      0.390700000000     0.259700000000     0.951650000000     0.046      
O        O      0.392400000000     0.305350000000     0.993750000000     0.046      
O        O      0.459650000000     0.019850000000     0.993550000000     0.046      
O        O      0.020450000000     0.492850000000     0.929900000000     0.046      
O        O      0.447800000000     0.492050000000     0.910000000000     0.046      
O        O      0.492200000000     0.328750000000     0.805750000000     0.046      
O        O      0.065750000000     0.328450000000     0.823600000000     0.046      
O        O      0.359300000000     0.009700000000     0.951650000000     0.046      
O        O      0.357600000000     0.055350000000     0.993750000000     0.046      
O        O      0.040350000000     0.269850000000     0.756450000000     0.046      
O        O      0.479550000000     0.242850000000     0.820100000000     0.046      
O        O      0.052200000000     0.242050000000     0.840000000000     0.046      
O        O      0.007800000000     0.078750000000     0.944250000000     0.046      
O        O      0.434250000000     0.078450000000     0.926400000000     0.046      
O        O      0.140700000000     0.259700000000     0.798350000000     0.046      
O        O      0.142400000000     0.305350000000     0.756250000000     0.046      
O        O      0.040350000000     0.480150000000     0.506450000000     0.046      
O        O      0.479550000000     0.007150000000     0.570100000000     0.046      
O        O      0.052200000000     0.007950000000     0.590000000000     0.046      
O        O      0.007800000000     0.171250000000     0.694250000000     0.046      
O        O      0.434250000000     0.171550000000     0.676400000000     0.046      
O        O      0.140700000000     0.490300000000     0.548350000000     0.046      
O        O      0.142400000000     0.444650000000     0.506250000000     0.046      
O        O      0.459650000000     0.230150000000     0.743550000000     0.046      
O        O      0.020450000000     0.257150000000     0.679900000000     0.046      
O        O      0.447800000000     0.257950000000     0.660000000000     0.046      
O        O      0.492200000000     0.421250000000     0.555750000000     0.046      
O        O      0.065750000000     0.421550000000     0.573600000000     0.046      
O        O      0.359300000000     0.240300000000     0.701650000000     0.046      
O        O      0.357600000000     0.194650000000     0.743750000000     0.046      
O        O      0.290350000000     0.980150000000     0.243550000000     0.046      
O        O      0.229550000000     0.507150000000     0.179900000000     0.046      
O        O      0.302200000000     0.507950000000     0.160000000000     0.046      
O        O      0.257800000000     0.671250000000     0.055750000000     0.046      
O        O      0.184250000000     0.671550000000     0.073600000000     0.046      
O        O      0.390700000000     0.990300000000     0.201650000000     0.046      
O        O      0.392400000000     0.944650000000     0.243750000000     0.046      
O        O      0.209650000000     0.730150000000     0.006450000000     0.046      
O        O      0.270450000000     0.757150000000     0.070100000000     0.046      
O        O      0.197800000000     0.757950000000     0.090000000000     0.046      
O        O      0.242200000000     0.921250000000     0.194250000000     0.046      
O        O      0.315750000000     0.921550000000     0.176400000000     0.046      
O        O      0.109300000000     0.740300000000     0.048350000000     0.046      
O        O      0.107600000000     0.694650000000     0.006250000000     0.046      
O        O      0.209650000000     0.519850000000     0.256450000000     0.046      
O        O      0.270450000000     0.992850000000     0.320100000000     0.046      
O        O      0.197800000000     0.992050000000     0.340000000000     0.046      
O        O      0.242200000000     0.828750000000     0.444250000000     0.046      
O        O      0.315750000000     0.828450000000     0.426400000000     0.046      
O        O      0.109300000000     0.509700000000     0.298350000000     0.046      
O        O      0.107600000000     0.555350000000     0.256250000000     0.046      
O        O      0.290350000000     0.769850000000     0.493550000000     0.046      
O        O      0.229550000000     0.742850000000     0.429900000000     0.046      
O        O      0.302200000000     0.742050000000     0.410000000000     0.046      
O        O      0.257800000000     0.578750000000     0.305750000000     0.046      
O        O      0.184250000000     0.578450000000     0.323600000000     0.046      
O        O      0.390700000000     0.759700000000     0.451650000000     0.046      
O        O      0.392400000000     0.805350000000     0.493750000000     0.046      
O        O      0.459650000000     0.519850000000     0.493550000000     0.046      
O        O      0.020450000000     0.992850000000     0.429900000000     0.046      
O        O      0.447800000000     0.992050000000     0.410000000000     0.046      
O        O      0.492200000000     0.828750000000     0.305750000000     0.046      
O        O      0.065750000000     0.828450000000     0.323600000000     0.046      
O        O      0.359300000000     0.509700000000     0.451650000000     0.046      
O        O      0.357600000000     0.555350000000     0.493750000000     0.046      
O        O      0.040350000000     0.769850000000     0.256450000000     0.046      
O        O      0.479550000000     0.742850000000     0.320100000000     0.046      
O        O      0.052200000000     0.742050000000     0.340000000000     0.046      
O        O      0.007800000000     0.578750000000     0.444250000000     0.046      
O        O      0.434250000000     0.578450000000     0.426400000000     0.046      
O        O      0.140700000000     0.759700000000     0.298350000000     0.046      
O        O      0.142400000000     0.805350000000     0.256250000000     0.046      
O        O      0.040350000000     0.980150000000     0.006450000000     0.046      
O        O      0.479550000000     0.507150000000     0.070100000000     0.046      
O        O      0.052200000000     0.507950000000     0.090000000000     0.046      
O        O      0.007800000000     0.671250000000     0.194250000000     0.046      
O        O      0.434250000000     0.671550000000     0.176400000000     0.046      
O        O      0.140700000000     0.990300000000     0.048350000000     0.046      
O        O      0.142400000000     0.944650000000     0.006250000000     0.046      
O        O      0.459650000000     0.730150000000     0.243550000000     0.046      
O        O      0.020450000000     0.757150000000     0.179900000000     0.046      
O        O      0.447800000000     0.757950000000     0.160000000000     0.046      
O        O      0.492200000000     0.921250000000     0.055750000000     0.046      
O        O      0.065750000000     0.921550000000     0.073600000000     0.046      
O        O      0.359300000000     0.740300000000     0.201650000000     0.046      
O        O      0.357600000000     0.694650000000     0.243750000000     0.046      
O        O      0.290350000000     0.980150000000     0.743550000000     0.046      
O        O      0.229550000000     0.507150000000     0.679900000000     0.046      
O        O      0.302200000000     0.507950000000     0.660000000000     0.046      
O        O      0.257800000000     0.671250000000     0.555750000000     0.046      
O        O      0.184250000000     0.671550000000     0.573600000000     0.046      
O        O      0.390700000000     0.990300000000     0.701650000000     0.046      
O        O      0.392400000000     0.944650000000     0.743750000000     0.046      
O        O      0.209650000000     0.730150000000     0.506450000000     0.046      
O        O      0.270450000000     0.757150000000     0.570100000000     0.046      
O        O      0.197800000000     0.757950000000     0.590000000000     0.046      
O        O      0.242200000000     0.921250000000     0.694250000000     0.046      
O        O      0.315750000000     0.921550000000     0.676400000000     0.046      
O        O      0.109300000000     0.740300000000     0.548350000000     0.046      
O        O      0.107600000000     0.694650000000     0.506250000000     0.046      
O        O      0.209650000000     0.519850000000     0.756450000000     0.046      
O        O      0.270450000000     0.992850000000     0.820100000000     0.046      
O        O      0.197800000000     0.992050000000     0.840000000000     0.046      
O        O      0.242200000000     0.828750000000     0.944250000000     0.046      
O        O      0.315750000000     0.828450000000     0.926400000000     0.046      
O        O      0.109300000000     0.509700000000     0.798350000000     0.046      
O        O      0.107600000000     0.555350000000     0.756250000000     0.046      
O        O      0.290350000000     0.769850000000     0.993550000000     0.046      
O        O      0.229550000000     0.742850000000     0.929900000000     0.046      
O        O      0.302200000000     0.742050000000     0.910000000000     0.046      
O        O      0.257800000000     0.578750000000     0.805750000000     0.046      
O        O      0.184250000000     0.578450000000     0.823600000000     0.046      
O        O      0.390700000000     0.759700000000     0.951650000000     0.046      
O        O      0.392400000000     0.805350000000     0.993750000000     0.046      
O        O      0.459650000000     0.519850000000     0.993550000000     0.046      
O        O      0.020450000000     0.992850000000     0.929900000000     0.046      
O        O      0.447800000000     0.992050000000     0.910000000000     0.046      
O        O      0.492200000000     0.828750000000     0.805750000000     0.046      
O        O      0.065750000000     0.828450000000     0.823600000000     0.046      
O        O      0.359300000000     0.509700000000     0.951650000000     0.046      
O        O      0.357600000000     0.555350000000     0.993750000000     0.046      
O        O      0.040350000000     0.769850000000     0.756450000000     0.046      
O        O      0.479550000000     0.742850000000     0.820100000000     0.046      
O        O      0.052200000000     0.742050000000     0.840000000000     0.046      
O        O      0.007800000000     0.578750000000     0.944250000000     0.046      
O        O      0.434250000000     0.578450000000     0.926400000000     0.046      
O        O      0.140700000000     0.759700000000     0.798350000000     0.046      
O        O      0.142400000000     0.805350000000     0.756250000000     0.046      
O        O      0.040350000000     0.980150000000     0.506450000000     0.046      
O        O      0.479550000000     0.507150000000     0.570100000000     0.046      
O        O      0.052200000000     0.507950000000     0.590000000000     0.046      
O        O      0.007800000000     0.671250000000     0.694250000000     0.046      
O        O      0.434250000000     0.671550000000     0.676400000000     0.046      
O        O      0.140700000000     0.990300000000     0.548350000000     0.046      
O        O      0.142400000000     0.944650000000     0.506250000000     0.046      
O        O      0.459650000000     0.730150000000     0.743550000000     0.046      
O        O      0.020450000000     0.757150000000     0.679900000000     0.046      
O        O      0.447800000000     0.757950000000     0.660000000000     0.046      
O        O      0.492200000000     0.921250000000     0.555750000000     0.046      
O        O      0.065750000000     0.921550000000     0.573600000000     0.046      
O        O      0.359300000000     0.740300000000     0.701650000000     0.046      
O        O      0.357600000000     0.694650000000     0.743750000000     0.046      
O        O      0.790350000000     0.480150000000     0.243550000000     0.046      
O        O      0.729550000000     0.007150000000     0.179900000000     0.046      
O        O      0.802200000000     0.007950000000     0.160000000000     0.046      
O        O      0.757800000000     0.171250000000     0.055750000000     0.046      
O        O      0.684250000000     0.171550000000     0.073600000000     0.046      
O        O      0.890700000000     0.490300000000     0.201650000000     0.046      
O        O      0.892400000000     0.444650000000     0.243750000000     0.046      
O        O      0.709650000000     0.230150000000     0.006450000000     0.046      
O        O      0.770450000000     0.257150000000     0.070100000000     0.046      
O        O      0.697800000000     0.257950000000     0.090000000000     0.046      
O        O      0.742200000000     0.421250000000     0.194250000000     0.046      
O        O      0.815750000000     0.421550000000     0.176400000000     0.046      
O        O      0.609300000000     0.240300000000     0.048350000000     0.046      
O        O      0.607600000000     0.194650000000     0.006250000000     0.046      
O        O      0.709650000000     0.019850000000     0.256450000000     0.046      
O        O      0.770450000000     0.492850000000     0.320100000000     0.046      
O        O      0.697800000000     0.492050000000     0.340000000000     0.046      
O        O      0.742200000000     0.328750000000     0.444250000000     0.046      
O        O      0.815750000000     0.328450000000     0.426400000000     0.046      
O        O      0.609300000000     0.009700000000     0.298350000000     0.046      
O        O      0.607600000000     0.055350000000     0.256250000000     0.046      
O        O      0.790350000000     0.269850000000     0.493550000000     0.046      
O        O      0.729550000000     0.242850000000     0.429900000000     0.046      
O        O      0.802200000000     0.242050000000     0.410000000000     0.046      
O        O      0.757800000000     0.078750000000     0.305750000000     0.046      
O        O      0.684250000000     0.078450000000     0.323600000000     0.046      
O        O      0.890700000000     0.259700000000     0.451650000000     0.046      
O        O      0.892400000000     0.305350000000     0.493750000000     0.046      
O        O      0.959650000000     0.019850000000     0.493550000000     0.046      
O        O      0.520450000000     0.492850000000     0.429900000000     0.046      
O        O      0.947800000000     0.492050000000     0.410000000000     0.046      
O        O      0.992200000000     0.328750000000     0.305750000000     0.046      
O        O      0.565750000000     0.328450000000     0.323600000000     0.046      
O        O      0.859300000000     0.009700000000     0.451650000000     0.046      
O        O      0.857600000000     0.055350000000     0.493750000000     0.046      
O        O      0.540350000000     0.269850000000     0.256450000000     0.046      
O        O      0.979550000000     0.242850000000     0.320100000000     0.046      
O        O      0.552200000000     0.242050000000     0.340000000000     0.046      
O        O      0.507800000000     0.078750000000     0.444250000000     0.046      
O        O      0.934250000000     0.078450000000     0.426400000000     0.046      
O        O      0.640700000000     0.259700000000     0.298350000000     0.046      
O        O      0.642400000000     0.305350000000     0.256250000000     0.046      
O        O      0.540350000000     0.480150000000     0.006450000000     0.046      
O        O      0.979550000000     0.007150000000     0.070100000000     0.046      
O        O      0.552200000000     0.007950000000     0.090000000000     0.046      
O        O      0.507800000000     0.171250000000     0.194250000000     0.046      
O        O      0.934250000000     0.171550000000     0.176400000000     0.046      
O        O      0.640700000000     0.490300000000     0.048350000000     0.046      
O        O      0.642400000000     0.444650000000     0.006250000000     0.046      
O        O      0.959650000000     0.230150000000     0.243550000000     0.046      
O        O      0.520450000000     0.257150000000     0.179900000000     0.046      
O        O      0.947800000000     0.257950000000     0.160000000000     0.046      
O        O      0.992200000000     0.421250000000     0.055750000000     0.046      
O        O      0.565750000000     0.421550000000     0.073600000000     0.046      
O        O      0.859300000000     0.240300000000     0.201650000000     0.046      
O        O      0.857600000000     0.194650000000     0.243750000000     0.046      
O        O      0.790350000000     0.480150000000     0.743550000000     0.046      
O        O      0.729550000000     0.007150000000     0.679900000000     0.046      
O        O      0.802200000000     0.007950000000     0.660000000000     0.046      
O        O      0.757800000000     0.171250000000     0.555750000000     0.046      
O        O      0.684250000000     0.171550000000     0.573600000000     0.046      
O        O      0.890700000000     0.490300000000     0.701650000000     0.046      
O        O      0.892400000000     0.444650000000     0.743750000000     0.046      
O        O      0.709650000000     0.230150000000     0.506450000000     0.046      
O        O      0.770450000000     0.257150000000     0.570100000000     0.046      
O        O      0.697800000000     0.257950000000     0.590000000000     0.046      
O        O      0.742200000000     0.421250000000     0.694250000000     0.046      
O        O      0.815750000000     0.421550000000     0.676400000000     0.046      
O        O      0.609300000000     0.240300000000     0.548350000000     0.046      
O        O      0.607600000000     0.194650000000     0.506250000000     0.046      
O        O      0.709650000000     0.019850000000     0.756450000000     0.046      
O        O      0.770450000000     0.492850000000     0.820100000000     0.046      
O        O      0.697800000000     0.492050000000     0.840000000000     0.046      
O        O      0.742200000000     0.328750000000     0.944250000000     0.046      
O        O      0.815750000000     0.328450000000     0.926400000000     0.046      
O        O      0.609300000000     0.009700000000     0.798350000000     0.046      
O        O      0.607600000000     0.055350000000     0.756250000000     0.046      
O        O      0.790350000000     0.269850000000     0.993550000000     0.046      
O        O      0.729550000000     0.242850000000     0.929900000000     0.046      
O        O      0.802200000000     0.242050000000     0.910000000000     0.046      
O        O      0.757800000000     0.078750000000     0.805750000000     0.046      
O        O      0.684250000000     0.078450000000     0.823600000000     0.046      
O        O      0.890700000000     0.259700000000     0.951650000000     0.046      
O        O      0.892400000000     0.305350000000     0.993750000000     0.046      
O        O      0.959650000000     0.019850000000     0.993550000000     0.046      
O        O      0.520450000000     0.492850000000     0.929900000000     0.046      
O        O      0.947800000000     0.492050000000     0.910000000000     0.046      
O        O      0.992200000000     0.328750000000     0.805750000000     0.046      
O        O      0.565750000000     0.328450000000     0.823600000000     0.046      
O        O      0.859300000000     0.009700000000     0.951650000000     0.046      
O        O      0.857600000000     0.055350000000     0.993750000000     0.046      
O        O      0.540350000000     0.269850000000     0.756450000000     0.046      
O        O      0.979550000000     0.242850000000     0.820100000000     0.046      
O        O      0.552200000000     0.242050000000     0.840000000000     0.046      
O        O      0.507800000000     0.078750000000     0.944250000000     0.046      
O        O      0.934250000000     0.078450000000     0.926400000000     0.046      
O        O      0.640700000000     0.259700000000     0.798350000000     0.046      
O        O      0.642400000000     0.305350000000     0.756250000000     0.046      
O        O      0.540350000000     0.480150000000     0.506450000000     0.046      
O        O      0.979550000000     0.007150000000     0.570100000000     0.046      
O        O      0.552200000000     0.007950000000     0.590000000000     0.046      
O        O      0.507800000000     0.171250000000     0.694250000000     0.046      
O        O      0.934250000000     0.171550000000     0.676400000000     0.046      
O        O      0.640700000000     0.490300000000     0.548350000000     0.046      
O        O      0.642400000000     0.444650000000     0.506250000000     0.046      
O        O      0.959650000000     0.230150000000     0.743550000000     0.046      
O        O      0.520450000000     0.257150000000     0.679900000000     0.046      
O        O      0.947800000000     0.257950000000     0.660000000000     0.046      
O        O      0.992200000000     0.421250000000     0.555750000000     0.046      
O        O      0.565750000000     0.421550000000     0.573600000000     0.046      
O        O      0.859300000000     0.240300000000     0.701650000000     0.046      
O        O      0.857600000000     0.194650000000     0.743750000000     0.046      
O        O      0.790350000000     0.980150000000     0.243550000000     0.046      
O        O      0.729550000000     0.507150000000     0.179900000000     0.046      
O        O      0.802200000000     0.507950000000     0.160000000000     0.046      
O        O      0.757800000000     0.671250000000     0.055750000000     0.046      
O        O      0.684250000000     0.671550000000     0.073600000000     0.046      
O        O      0.890700000000     0.990300000000     0.201650000000     0.046      
O        O      0.892400000000     0.944650000000     0.243750000000     0.046      
O        O      0.709650000000     0.730150000000     0.006450000000     0.046      
O        O      0.770450000000     0.757150000000     0.070100000000     0.046      
O        O      0.697800000000     0.757950000000     0.090000000000     0.046      
O        O      0.742200000000     0.921250000000     0.194250000000     0.046      
O        O      0.815750000000     0.921550000000     0.176400000000     0.046      
O        O      0.609300000000     0.740300000000     0.048350000000     0.046      
O        O      0.607600000000     0.694650000000     0.006250000000     0.046      
O        O      0.709650000000     0.519850000000     0.256450000000     0.046      
O        O      0.770450000000     0.992850000000     0.320100000000     0.046      
O        O      0.697800000000     0.992050000000     0.340000000000     0.046      
O        O      0.742200000000     0.828750000000     0.444250000000     0.046      
O        O      0.815750000000     0.828450000000     0.426400000000     0.046      
O        O      0.609300000000     0.509700000000     0.298350000000     0.046      
O        O      0.607600000000     0.555350000000     0.256250000000     0.046      
O        O      0.790350000000     0.769850000000     0.493550000000     0.046      
O        O      0.729550000000     0.742850000000     0.429900000000     0.046      
O        O      0.802200000000     0.742050000000     0.410000000000     0.046      
O        O      0.757800000000     0.578750000000     0.305750000000     0.046      
O        O      0.684250000000     0.578450000000     0.323600000000     0.046      
O        O      0.890700000000     0.759700000000     0.451650000000     0.046      
O        O      0.892400000000     0.805350000000     0.493750000000     0.046      
O        O      0.959650000000     0.519850000000     0.493550000000     0.046      
O        O      0.520450000000     0.992850000000     0.429900000000     0.046      
O        O      0.947800000000     0.992050000000     0.410000000000     0.046      
O        O      0.992200000000     0.828750000000     0.305750000000     0.046      
O        O      0.565750000000     0.828450000000     0.323600000000     0.046      
O        O      0.859300000000     0.509700000000     0.451650000000     0.046      
O        O      0.857600000000     0.555350000000     0.493750000000     0.046      
O        O      0.540350000000     0.769850000000     0.256450000000     0.046      
O        O      0.979550000000     0.742850000000     0.320100000000     0.046      
O        O      0.552200000000     0.742050000000     0.340000000000     0.046      
O        O      0.507800000000     0.578750000000     0.444250000000     0.046      
O        O      0.934250000000     0.578450000000     0.426400000000     0.046      
O        O      0.640700000000     0.759700000000     0.298350000000     0.046      
O        O      0.642400000000     0.805350000000     0.256250000000     0.046      
O        O      0.540350000000     0.980150000000     0.006450000000     0.046      
O        O      0.979550000000     0.507150000000     0.070100000000     0.046      
O        O      0.552200000000     0.507950000000     0.090000000000     0.046      
O        O      0.507800000000     0.671250000000     0.194250000000     0.046      
O        O      0.934250000000     0.671550000000     0.176400000000     0.046      
O        O      0.640700000000     0.990300000000     0.048350000000     0.046      
O        O      0.642400000000     0.944650000000     0.006250000000     0.046      
O        O      0.959650000000     0.730150000000     0.243550000000     0.046      
O        O      0.520450000000     0.757150000000     0.179900000000     0.046      
O        O      0.947800000000     0.757950000000     0.160000000000     0.046      
O        O      0.992200000000     0.921250000000     0.055750000000     0.046      
O        O      0.565750000000     0.921550000000     0.073600000000     0.046      
O        O      0.859300000000     0.740300000000     0.201650000000     0.046      
O        O      0.857600000000     0.694650000000     0.243750000000     0.046      
O        O      0.790350000000     0.980150000000     0.743550000000     0.046      
O        O      0.729550000000     0.507150000000     0.679900000000     0.046      
O        O      0.802200000000     0.507950000000     0.660000000000     0.046      
O        O      0.757800000000     0.671250000000     0.555750000000     0.046      
O        O      0.684250000000     0.671550000000     0.573600000000     0.046      
O        O      0.890700000000     0.990300000000     0.701650000000     0.046      
O        O      0.892400000000     0.944650000000     0.743750000000     0.046      
O        O      0.709650000000     0.730150000000     0.506450000000     0.046      
O        O      0.770450000000     0.757150000000     0.570100000000     0.046      
O        O      0.697800000000     0.757950000000     0.590000000000     0.046      
O        O      0.742200000000     0.921250000000     0.694250000000     0.046      
O        O      0.815750000000     0.921550000000     0.676400000000     0.046      
O        O      0.609300000000     0.740300000000     0.548350000000     0.046      
O        O      0.607600000000     0.694650000000     0.506250000000     0.046      
O        O      0.709650000000     0.519850000000     0.756450000000     0.046      
O        O      0.770450000000     0.992850000000     0.820100000000     0.046      
O        O      0.697800000000     0.992050000000     0.840000000000     0.046      
O        O      0.742200000000     0.828750000000     0.944250000000     0.046      
O        O      0.815750000000     0.828450000000     0.926400000000     0.046      
O        O      0.609300000000     0.509700000000     0.798350000000     0.046      
O        O      0.607600000000     0.555350000000     0.756250000000     0.046      
O        O      0.790350000000     0.769850000000     0.993550000000     0.046      
O        O      0.729550000000     0.742850000000     0.929900000000     0.046      
O        O      0.802200000000     0.742050000000     0.910000000000     0.046      
O        O      0.757800000000     0.578750000000     0.805750000000     0.046      
O        O      0.684250000000     0.578450000000     0.823600000000     0.046      
O        O      0.890700000000     0.759700000000     0.951650000000     0.046      
O        O      0.892400000000     0.805350000000     0.993750000000     0.046      
O        O      0.959650000000     0.519850000000     0.993550000000     0.046      
O        O      0.520450000000     0.992850000000     0.929900000000     0.046      
O        O      0.947800000000     0.992050000000     0.910000000000     0.046      
O        O      0.992200000000     0.828750000000     0.805750000000     0.046      
O        O      0.565750000000     0.828450000000     0.823600000000     0.046      
O        O      0.859300000000     0.509700000000     0.951650000000     0.046      
O        O      0.857600000000     0.555350000000     0.993750000000     0.046      
O        O      0.540350000000     0.769850000000     0.756450000000     0.046      
O        O      0.979550000000     0.742850000000     0.820100000000     0.046      
O        O      0.552200000000     0.742050000000     0.840000000000     0.046      
O        O      0.507800000000     0.578750000000     0.944250000000     0.046      
O        O      0.934250000000     0.578450000000     0.926400000000     0.046      
O        O      0.640700000000     0.759700000000     0.798350000000     0.046      
O        O      0.642400000000     0.805350000000     0.756250000000     0.046      
O        O      0.540350000000     0.980150000000     0.506450000000     0.046      
O        O      0.979550000000     0.507150000000     0.570100000000     0.046      
O        O      0.552200000000     0.507950000000     0.590000000000     0.046      
O        O      0.507800000000     0.671250000000     0.694250000000     0.046      
O        O      0.934250000000     0.671550000000     0.676400000000     0.046      
O        O      0.640700000000     0.990300000000     0.548350000000     0.046      
O        O      0.642400000000     0.944650000000     0.506250000000     0.046      
O        O      0.959650000000     0.730150000000     0.743550000000     0.046      
O        O      0.520450000000     0.757150000000     0.679900000000     0.046      
O        O      0.947800000000     0.757950000000     0.660000000000     0.046      
O        O      0.992200000000     0.921250000000     0.555750000000     0.046      
O        O      0.565750000000     0.921550000000     0.573600000000     0.046      
O        O      0.859300000000     0.740300000000     0.701650000000     0.046      
O        O      0.857600000000     0.694650000000     0.743750000000     0.046      


