data_ABAVIJ_clean

_audit_creation_method RASPA-1.0
_audit_creation_date 2022-6-18
_audit_author_name 'Xiaoqi Zhang'

_cell_length_a    9.8064
_cell_length_b    10.6685
_cell_length_c    13.9712
_cell_angle_alpha 95.3024
_cell_angle_beta  110.546
_cell_angle_gamma 74.7329
_cell_volume      23766.9

_symmetry_cell_setting          triclinic
_symmetry_space_group_name_Hall 'P 1'
_symmetry_space_group_name_H-M  'P 1'
_symmetry_Int_Tables_number     1

_symmetry_equiv_pos_as_xyz 'x,y,z'

loop_
_atom_site_label
_atom_site_type_symbol
_atom_site_fract_x
_atom_site_fract_y
_atom_site_fract_z
_atom_site_charge
Co       Co     0.207476666667     0.293373333333     0.124410000000     0.02       
Co       Co     0.291626666667     0.127983333333     0.373960000000     0.02       
Co       Co     0.124536666667     0.126706666667     0.375590000000     0.02       
Co       Co     0.042320000000     0.294650000000     0.126040000000     0.02       
Co       Co     0.207476666667     0.293373333333     0.624410000000     0.02       
Co       Co     0.291626666667     0.127983333333     0.873960000000     0.02       
Co       Co     0.124536666667     0.126706666667     0.875590000000     0.02       
Co       Co     0.042320000000     0.294650000000     0.626040000000     0.02       
Co       Co     0.207476666667     0.626706666667     0.124410000000     0.02       
Co       Co     0.291626666667     0.461316666667     0.373960000000     0.02       
Co       Co     0.124536666667     0.460040000000     0.375590000000     0.02       
Co       Co     0.042320000000     0.627983333333     0.126040000000     0.02       
Co       Co     0.207476666667     0.626706666667     0.624410000000     0.02       
Co       Co     0.291626666667     0.461316666667     0.873960000000     0.02       
Co       Co     0.124536666667     0.460040000000     0.875590000000     0.02       
Co       Co     0.042320000000     0.627983333333     0.626040000000     0.02       
Co       Co     0.207476666667     0.960040000000     0.124410000000     0.02       
Co       Co     0.291626666667     0.794650000000     0.373960000000     0.02       
Co       Co     0.124536666667     0.793373333333     0.375590000000     0.02       
Co       Co     0.042320000000     0.961316666667     0.126040000000     0.02       
Co       Co     0.207476666667     0.960040000000     0.624410000000     0.02       
Co       Co     0.291626666667     0.794650000000     0.873960000000     0.02       
Co       Co     0.124536666667     0.793373333333     0.875590000000     0.02       
Co       Co     0.042320000000     0.961316666667     0.626040000000     0.02       
Co       Co     0.540810000000     0.293373333333     0.124410000000     0.02       
Co       Co     0.624960000000     0.127983333333     0.373960000000     0.02       
Co       Co     0.457870000000     0.126706666667     0.375590000000     0.02       
Co       Co     0.375653333333     0.294650000000     0.126040000000     0.02       
Co       Co     0.540810000000     0.293373333333     0.624410000000     0.02       
Co       Co     0.624960000000     0.127983333333     0.873960000000     0.02       
Co       Co     0.457870000000     0.126706666667     0.875590000000     0.02       
Co       Co     0.375653333333     0.294650000000     0.626040000000     0.02       
Co       Co     0.540810000000     0.626706666667     0.124410000000     0.02       
Co       Co     0.624960000000     0.461316666667     0.373960000000     0.02       
Co       Co     0.457870000000     0.460040000000     0.375590000000     0.02       
Co       Co     0.375653333333     0.627983333333     0.126040000000     0.02       
Co       Co     0.540810000000     0.626706666667     0.624410000000     0.02       
Co       Co     0.624960000000     0.461316666667     0.873960000000     0.02       
Co       Co     0.457870000000     0.460040000000     0.875590000000     0.02       
Co       Co     0.375653333333     0.627983333333     0.626040000000     0.02       
Co       Co     0.540810000000     0.960040000000     0.124410000000     0.02       
Co       Co     0.624960000000     0.794650000000     0.373960000000     0.02       
Co       Co     0.457870000000     0.793373333333     0.375590000000     0.02       
Co       Co     0.375653333333     0.961316666667     0.126040000000     0.02       
Co       Co     0.540810000000     0.960040000000     0.624410000000     0.02       
Co       Co     0.624960000000     0.794650000000     0.873960000000     0.02       
Co       Co     0.457870000000     0.793373333333     0.875590000000     0.02       
Co       Co     0.375653333333     0.961316666667     0.626040000000     0.02       
Co       Co     0.874143333333     0.293373333333     0.124410000000     0.02       
Co       Co     0.958293333333     0.127983333333     0.373960000000     0.02       
Co       Co     0.791203333333     0.126706666667     0.375590000000     0.02       
Co       Co     0.708986666667     0.294650000000     0.126040000000     0.02       
Co       Co     0.874143333333     0.293373333333     0.624410000000     0.02       
Co       Co     0.958293333333     0.127983333333     0.873960000000     0.02       
Co       Co     0.791203333333     0.126706666667     0.875590000000     0.02       
Co       Co     0.708986666667     0.294650000000     0.626040000000     0.02       
Co       Co     0.874143333333     0.626706666667     0.124410000000     0.02       
Co       Co     0.958293333333     0.461316666667     0.373960000000     0.02       
Co       Co     0.791203333333     0.460040000000     0.375590000000     0.02       
Co       Co     0.708986666667     0.627983333333     0.126040000000     0.02       
Co       Co     0.874143333333     0.626706666667     0.624410000000     0.02       
Co       Co     0.958293333333     0.461316666667     0.873960000000     0.02       
Co       Co     0.791203333333     0.460040000000     0.875590000000     0.02       
Co       Co     0.708986666667     0.627983333333     0.626040000000     0.02       
Co       Co     0.874143333333     0.960040000000     0.124410000000     0.02       
Co       Co     0.958293333333     0.794650000000     0.373960000000     0.02       
Co       Co     0.791203333333     0.793373333333     0.375590000000     0.02       
Co       Co     0.708986666667     0.961316666667     0.126040000000     0.02       
Co       Co     0.874143333333     0.960040000000     0.624410000000     0.02       
Co       Co     0.958293333333     0.794650000000     0.873960000000     0.02       
Co       Co     0.791203333333     0.793373333333     0.875590000000     0.02       
Co       Co     0.708986666667     0.961316666667     0.626040000000     0.02       
H        H      0.277666666667     0.255766666667     0.062900000000     0.014      
H        H      0.280933333333     0.213266666667     0.491700000000     0.014      
H        H      0.139333333333     0.204866666667     0.467800000000     0.014      
H        H      0.141033333333     0.247333333333     0.040400000000     0.014      
H        H      0.301566666667     0.163566666667     0.281100000000     0.014      
H        H      0.253866666667     0.203966666667     0.207600000000     0.014      
H        H      0.130233333333     0.212300000000     0.244700000000     0.014      
H        H      0.181766666667     0.170333333333     0.316800000000     0.014      
H        H      0.168733333333     0.055633333333     0.154200000000     0.014      
H        H      0.168266666667     0.098766666667     0.225600000000     0.014      
H        H      0.247833333333     0.327566666667     0.314800000000     0.014      
H        H      0.242966666667     0.286033333333     0.242300000000     0.014      
H        H      0.326300000000     0.135500000000     0.493100000000     0.014      
H        H      0.037766666667     0.094066666667     0.066300000000     0.014      
H        H      0.074666666667     0.326733333333     0.476300000000     0.014      
H        H      0.022533333333     0.035800000000     0.405600000000     0.014      
H        H      0.235733333333     0.089100000000     0.437100000000     0.014      
H        H      0.286466666667     0.046600000000     0.008300000000     0.014      
H        H      0.160800000000     0.038200000000     0.032200000000     0.014      
H        H      0.114100000000     0.080666666667     0.459600000000     0.014      
H        H      0.114166666667     0.330233333333     0.218900000000     0.014      
H        H      0.115466666667     0.037300000000     0.292400000000     0.014      
H        H      0.300433333333     0.045633333333     0.255300000000     0.014      
H        H      0.303900000000     0.003666666667     0.183200000000     0.014      
H        H      0.065933333333     0.222300000000     0.345800000000     0.014      
H        H      0.017866666667     0.265433333333     0.274400000000     0.014      
H        H      0.037966666667     0.160900000000     0.185200000000     0.014      
H        H      0.081433333333     0.119366666667     0.257700000000     0.014      
H        H      0.330900000000     0.302166666667     0.006900000000     0.014      
H        H      0.326900000000     0.260733333333     0.433700000000     0.014      
H        H      0.090466666667     0.160066666667     0.023700000000     0.014      
H        H      0.085466666667     0.202466666667     0.094400000000     0.014      
H        H      0.277666666667     0.255766666667     0.562900000000     0.014      
H        H      0.280933333333     0.213266666667     0.991700000000     0.014      
H        H      0.139333333333     0.204866666667     0.967800000000     0.014      
H        H      0.141033333333     0.247333333333     0.540400000000     0.014      
H        H      0.301566666667     0.163566666667     0.781100000000     0.014      
H        H      0.253866666667     0.203966666667     0.707600000000     0.014      
H        H      0.130233333333     0.212300000000     0.744700000000     0.014      
H        H      0.181766666667     0.170333333333     0.816800000000     0.014      
H        H      0.168733333333     0.055633333333     0.654200000000     0.014      
H        H      0.168266666667     0.098766666667     0.725600000000     0.014      
H        H      0.247833333333     0.327566666667     0.814800000000     0.014      
H        H      0.242966666667     0.286033333333     0.742300000000     0.014      
H        H      0.326300000000     0.135500000000     0.993100000000     0.014      
H        H      0.037766666667     0.094066666667     0.566300000000     0.014      
H        H      0.074666666667     0.326733333333     0.976300000000     0.014      
H        H      0.022533333333     0.035800000000     0.905600000000     0.014      
H        H      0.235733333333     0.089100000000     0.937100000000     0.014      
H        H      0.286466666667     0.046600000000     0.508300000000     0.014      
H        H      0.160800000000     0.038200000000     0.532200000000     0.014      
H        H      0.114100000000     0.080666666667     0.959600000000     0.014      
H        H      0.114166666667     0.330233333333     0.718900000000     0.014      
H        H      0.115466666667     0.037300000000     0.792400000000     0.014      
H        H      0.300433333333     0.045633333333     0.755300000000     0.014      
H        H      0.303900000000     0.003666666667     0.683200000000     0.014      
H        H      0.065933333333     0.222300000000     0.845800000000     0.014      
H        H      0.017866666667     0.265433333333     0.774400000000     0.014      
H        H      0.037966666667     0.160900000000     0.685200000000     0.014      
H        H      0.081433333333     0.119366666667     0.757700000000     0.014      
H        H      0.330900000000     0.302166666667     0.506900000000     0.014      
H        H      0.326900000000     0.260733333333     0.933700000000     0.014      
H        H      0.090466666667     0.160066666667     0.523700000000     0.014      
H        H      0.085466666667     0.202466666667     0.594400000000     0.014      
H        H      0.277666666667     0.589100000000     0.062900000000     0.014      
H        H      0.280933333333     0.546600000000     0.491700000000     0.014      
H        H      0.139333333333     0.538200000000     0.467800000000     0.014      
H        H      0.141033333333     0.580666666667     0.040400000000     0.014      
H        H      0.301566666667     0.496900000000     0.281100000000     0.014      
H        H      0.253866666667     0.537300000000     0.207600000000     0.014      
H        H      0.130233333333     0.545633333333     0.244700000000     0.014      
H        H      0.181766666667     0.503666666667     0.316800000000     0.014      
H        H      0.168733333333     0.388966666667     0.154200000000     0.014      
H        H      0.168266666667     0.432100000000     0.225600000000     0.014      
H        H      0.247833333333     0.660900000000     0.314800000000     0.014      
H        H      0.242966666667     0.619366666667     0.242300000000     0.014      
H        H      0.326300000000     0.468833333333     0.493100000000     0.014      
H        H      0.037766666667     0.427400000000     0.066300000000     0.014      
H        H      0.074666666667     0.660066666667     0.476300000000     0.014      
H        H      0.022533333333     0.369133333333     0.405600000000     0.014      
H        H      0.235733333333     0.422433333333     0.437100000000     0.014      
H        H      0.286466666667     0.379933333333     0.008300000000     0.014      
H        H      0.160800000000     0.371533333333     0.032200000000     0.014      
H        H      0.114100000000     0.414000000000     0.459600000000     0.014      
H        H      0.114166666667     0.663566666667     0.218900000000     0.014      
H        H      0.115466666667     0.370633333333     0.292400000000     0.014      
H        H      0.300433333333     0.378966666667     0.255300000000     0.014      
H        H      0.303900000000     0.337000000000     0.183200000000     0.014      
H        H      0.065933333333     0.555633333333     0.345800000000     0.014      
H        H      0.017866666667     0.598766666667     0.274400000000     0.014      
H        H      0.037966666667     0.494233333333     0.185200000000     0.014      
H        H      0.081433333333     0.452700000000     0.257700000000     0.014      
H        H      0.330900000000     0.635500000000     0.006900000000     0.014      
H        H      0.326900000000     0.594066666667     0.433700000000     0.014      
H        H      0.090466666667     0.493400000000     0.023700000000     0.014      
H        H      0.085466666667     0.535800000000     0.094400000000     0.014      
H        H      0.277666666667     0.589100000000     0.562900000000     0.014      
H        H      0.280933333333     0.546600000000     0.991700000000     0.014      
H        H      0.139333333333     0.538200000000     0.967800000000     0.014      
H        H      0.141033333333     0.580666666667     0.540400000000     0.014      
H        H      0.301566666667     0.496900000000     0.781100000000     0.014      
H        H      0.253866666667     0.537300000000     0.707600000000     0.014      
H        H      0.130233333333     0.545633333333     0.744700000000     0.014      
H        H      0.181766666667     0.503666666667     0.816800000000     0.014      
H        H      0.168733333333     0.388966666667     0.654200000000     0.014      
H        H      0.168266666667     0.432100000000     0.725600000000     0.014      
H        H      0.247833333333     0.660900000000     0.814800000000     0.014      
H        H      0.242966666667     0.619366666667     0.742300000000     0.014      
H        H      0.326300000000     0.468833333333     0.993100000000     0.014      
H        H      0.037766666667     0.427400000000     0.566300000000     0.014      
H        H      0.074666666667     0.660066666667     0.976300000000     0.014      
H        H      0.022533333333     0.369133333333     0.905600000000     0.014      
H        H      0.235733333333     0.422433333333     0.937100000000     0.014      
H        H      0.286466666667     0.379933333333     0.508300000000     0.014      
H        H      0.160800000000     0.371533333333     0.532200000000     0.014      
H        H      0.114100000000     0.414000000000     0.959600000000     0.014      
H        H      0.114166666667     0.663566666667     0.718900000000     0.014      
H        H      0.115466666667     0.370633333333     0.792400000000     0.014      
H        H      0.300433333333     0.378966666667     0.755300000000     0.014      
H        H      0.303900000000     0.337000000000     0.683200000000     0.014      
H        H      0.065933333333     0.555633333333     0.845800000000     0.014      
H        H      0.017866666667     0.598766666667     0.774400000000     0.014      
H        H      0.037966666667     0.494233333333     0.685200000000     0.014      
H        H      0.081433333333     0.452700000000     0.757700000000     0.014      
H        H      0.330900000000     0.635500000000     0.506900000000     0.014      
H        H      0.326900000000     0.594066666667     0.933700000000     0.014      
H        H      0.090466666667     0.493400000000     0.523700000000     0.014      
H        H      0.085466666667     0.535800000000     0.594400000000     0.014      
H        H      0.277666666667     0.922433333333     0.062900000000     0.014      
H        H      0.280933333333     0.879933333333     0.491700000000     0.014      
H        H      0.139333333333     0.871533333333     0.467800000000     0.014      
H        H      0.141033333333     0.914000000000     0.040400000000     0.014      
H        H      0.301566666667     0.830233333333     0.281100000000     0.014      
H        H      0.253866666667     0.870633333333     0.207600000000     0.014      
H        H      0.130233333333     0.878966666667     0.244700000000     0.014      
H        H      0.181766666667     0.837000000000     0.316800000000     0.014      
H        H      0.168733333333     0.722300000000     0.154200000000     0.014      
H        H      0.168266666667     0.765433333333     0.225600000000     0.014      
H        H      0.247833333333     0.994233333333     0.314800000000     0.014      
H        H      0.242966666667     0.952700000000     0.242300000000     0.014      
H        H      0.326300000000     0.802166666667     0.493100000000     0.014      
H        H      0.037766666667     0.760733333333     0.066300000000     0.014      
H        H      0.074666666667     0.993400000000     0.476300000000     0.014      
H        H      0.022533333333     0.702466666667     0.405600000000     0.014      
H        H      0.235733333333     0.755766666667     0.437100000000     0.014      
H        H      0.286466666667     0.713266666667     0.008300000000     0.014      
H        H      0.160800000000     0.704866666667     0.032200000000     0.014      
H        H      0.114100000000     0.747333333333     0.459600000000     0.014      
H        H      0.114166666667     0.996900000000     0.218900000000     0.014      
H        H      0.115466666667     0.703966666667     0.292400000000     0.014      
H        H      0.300433333333     0.712300000000     0.255300000000     0.014      
H        H      0.303900000000     0.670333333333     0.183200000000     0.014      
H        H      0.065933333333     0.888966666667     0.345800000000     0.014      
H        H      0.017866666667     0.932100000000     0.274400000000     0.014      
H        H      0.037966666667     0.827566666667     0.185200000000     0.014      
H        H      0.081433333333     0.786033333333     0.257700000000     0.014      
H        H      0.330900000000     0.968833333333     0.006900000000     0.014      
H        H      0.326900000000     0.927400000000     0.433700000000     0.014      
H        H      0.090466666667     0.826733333333     0.023700000000     0.014      
H        H      0.085466666667     0.869133333333     0.094400000000     0.014      
H        H      0.277666666667     0.922433333333     0.562900000000     0.014      
H        H      0.280933333333     0.879933333333     0.991700000000     0.014      
H        H      0.139333333333     0.871533333333     0.967800000000     0.014      
H        H      0.141033333333     0.914000000000     0.540400000000     0.014      
H        H      0.301566666667     0.830233333333     0.781100000000     0.014      
H        H      0.253866666667     0.870633333333     0.707600000000     0.014      
H        H      0.130233333333     0.878966666667     0.744700000000     0.014      
H        H      0.181766666667     0.837000000000     0.816800000000     0.014      
H        H      0.168733333333     0.722300000000     0.654200000000     0.014      
H        H      0.168266666667     0.765433333333     0.725600000000     0.014      
H        H      0.247833333333     0.994233333333     0.814800000000     0.014      
H        H      0.242966666667     0.952700000000     0.742300000000     0.014      
H        H      0.326300000000     0.802166666667     0.993100000000     0.014      
H        H      0.037766666667     0.760733333333     0.566300000000     0.014      
H        H      0.074666666667     0.993400000000     0.976300000000     0.014      
H        H      0.022533333333     0.702466666667     0.905600000000     0.014      
H        H      0.235733333333     0.755766666667     0.937100000000     0.014      
H        H      0.286466666667     0.713266666667     0.508300000000     0.014      
H        H      0.160800000000     0.704866666667     0.532200000000     0.014      
H        H      0.114100000000     0.747333333333     0.959600000000     0.014      
H        H      0.114166666667     0.996900000000     0.718900000000     0.014      
H        H      0.115466666667     0.703966666667     0.792400000000     0.014      
H        H      0.300433333333     0.712300000000     0.755300000000     0.014      
H        H      0.303900000000     0.670333333333     0.683200000000     0.014      
H        H      0.065933333333     0.888966666667     0.845800000000     0.014      
H        H      0.017866666667     0.932100000000     0.774400000000     0.014      
H        H      0.037966666667     0.827566666667     0.685200000000     0.014      
H        H      0.081433333333     0.786033333333     0.757700000000     0.014      
H        H      0.330900000000     0.968833333333     0.506900000000     0.014      
H        H      0.326900000000     0.927400000000     0.933700000000     0.014      
H        H      0.090466666667     0.826733333333     0.523700000000     0.014      
H        H      0.085466666667     0.869133333333     0.594400000000     0.014      
H        H      0.611000000000     0.255766666667     0.062900000000     0.014      
H        H      0.614266666667     0.213266666667     0.491700000000     0.014      
H        H      0.472666666667     0.204866666667     0.467800000000     0.014      
H        H      0.474366666667     0.247333333333     0.040400000000     0.014      
H        H      0.634900000000     0.163566666667     0.281100000000     0.014      
H        H      0.587200000000     0.203966666667     0.207600000000     0.014      
H        H      0.463566666667     0.212300000000     0.244700000000     0.014      
H        H      0.515100000000     0.170333333333     0.316800000000     0.014      
H        H      0.502066666667     0.055633333333     0.154200000000     0.014      
H        H      0.501600000000     0.098766666667     0.225600000000     0.014      
H        H      0.581166666667     0.327566666667     0.314800000000     0.014      
H        H      0.576300000000     0.286033333333     0.242300000000     0.014      
H        H      0.659633333333     0.135500000000     0.493100000000     0.014      
H        H      0.371100000000     0.094066666667     0.066300000000     0.014      
H        H      0.408000000000     0.326733333333     0.476300000000     0.014      
H        H      0.355866666667     0.035800000000     0.405600000000     0.014      
H        H      0.569066666667     0.089100000000     0.437100000000     0.014      
H        H      0.619800000000     0.046600000000     0.008300000000     0.014      
H        H      0.494133333333     0.038200000000     0.032200000000     0.014      
H        H      0.447433333333     0.080666666667     0.459600000000     0.014      
H        H      0.447500000000     0.330233333333     0.218900000000     0.014      
H        H      0.448800000000     0.037300000000     0.292400000000     0.014      
H        H      0.633766666667     0.045633333333     0.255300000000     0.014      
H        H      0.637233333333     0.003666666667     0.183200000000     0.014      
H        H      0.399266666667     0.222300000000     0.345800000000     0.014      
H        H      0.351200000000     0.265433333333     0.274400000000     0.014      
H        H      0.371300000000     0.160900000000     0.185200000000     0.014      
H        H      0.414766666667     0.119366666667     0.257700000000     0.014      
H        H      0.664233333333     0.302166666667     0.006900000000     0.014      
H        H      0.660233333333     0.260733333333     0.433700000000     0.014      
H        H      0.423800000000     0.160066666667     0.023700000000     0.014      
H        H      0.418800000000     0.202466666667     0.094400000000     0.014      
H        H      0.611000000000     0.255766666667     0.562900000000     0.014      
H        H      0.614266666667     0.213266666667     0.991700000000     0.014      
H        H      0.472666666667     0.204866666667     0.967800000000     0.014      
H        H      0.474366666667     0.247333333333     0.540400000000     0.014      
H        H      0.634900000000     0.163566666667     0.781100000000     0.014      
H        H      0.587200000000     0.203966666667     0.707600000000     0.014      
H        H      0.463566666667     0.212300000000     0.744700000000     0.014      
H        H      0.515100000000     0.170333333333     0.816800000000     0.014      
H        H      0.502066666667     0.055633333333     0.654200000000     0.014      
H        H      0.501600000000     0.098766666667     0.725600000000     0.014      
H        H      0.581166666667     0.327566666667     0.814800000000     0.014      
H        H      0.576300000000     0.286033333333     0.742300000000     0.014      
H        H      0.659633333333     0.135500000000     0.993100000000     0.014      
H        H      0.371100000000     0.094066666667     0.566300000000     0.014      
H        H      0.408000000000     0.326733333333     0.976300000000     0.014      
H        H      0.355866666667     0.035800000000     0.905600000000     0.014      
H        H      0.569066666667     0.089100000000     0.937100000000     0.014      
H        H      0.619800000000     0.046600000000     0.508300000000     0.014      
H        H      0.494133333333     0.038200000000     0.532200000000     0.014      
H        H      0.447433333333     0.080666666667     0.959600000000     0.014      
H        H      0.447500000000     0.330233333333     0.718900000000     0.014      
H        H      0.448800000000     0.037300000000     0.792400000000     0.014      
H        H      0.633766666667     0.045633333333     0.755300000000     0.014      
H        H      0.637233333333     0.003666666667     0.683200000000     0.014      
H        H      0.399266666667     0.222300000000     0.845800000000     0.014      
H        H      0.351200000000     0.265433333333     0.774400000000     0.014      
H        H      0.371300000000     0.160900000000     0.685200000000     0.014      
H        H      0.414766666667     0.119366666667     0.757700000000     0.014      
H        H      0.664233333333     0.302166666667     0.506900000000     0.014      
H        H      0.660233333333     0.260733333333     0.933700000000     0.014      
H        H      0.423800000000     0.160066666667     0.523700000000     0.014      
H        H      0.418800000000     0.202466666667     0.594400000000     0.014      
H        H      0.611000000000     0.589100000000     0.062900000000     0.014      
H        H      0.614266666667     0.546600000000     0.491700000000     0.014      
H        H      0.472666666667     0.538200000000     0.467800000000     0.014      
H        H      0.474366666667     0.580666666667     0.040400000000     0.014      
H        H      0.634900000000     0.496900000000     0.281100000000     0.014      
H        H      0.587200000000     0.537300000000     0.207600000000     0.014      
H        H      0.463566666667     0.545633333333     0.244700000000     0.014      
H        H      0.515100000000     0.503666666667     0.316800000000     0.014      
H        H      0.502066666667     0.388966666667     0.154200000000     0.014      
H        H      0.501600000000     0.432100000000     0.225600000000     0.014      
H        H      0.581166666667     0.660900000000     0.314800000000     0.014      
H        H      0.576300000000     0.619366666667     0.242300000000     0.014      
H        H      0.659633333333     0.468833333333     0.493100000000     0.014      
H        H      0.371100000000     0.427400000000     0.066300000000     0.014      
H        H      0.408000000000     0.660066666667     0.476300000000     0.014      
H        H      0.355866666667     0.369133333333     0.405600000000     0.014      
H        H      0.569066666667     0.422433333333     0.437100000000     0.014      
H        H      0.619800000000     0.379933333333     0.008300000000     0.014      
H        H      0.494133333333     0.371533333333     0.032200000000     0.014      
H        H      0.447433333333     0.414000000000     0.459600000000     0.014      
H        H      0.447500000000     0.663566666667     0.218900000000     0.014      
H        H      0.448800000000     0.370633333333     0.292400000000     0.014      
H        H      0.633766666667     0.378966666667     0.255300000000     0.014      
H        H      0.637233333333     0.337000000000     0.183200000000     0.014      
H        H      0.399266666667     0.555633333333     0.345800000000     0.014      
H        H      0.351200000000     0.598766666667     0.274400000000     0.014      
H        H      0.371300000000     0.494233333333     0.185200000000     0.014      
H        H      0.414766666667     0.452700000000     0.257700000000     0.014      
H        H      0.664233333333     0.635500000000     0.006900000000     0.014      
H        H      0.660233333333     0.594066666667     0.433700000000     0.014      
H        H      0.423800000000     0.493400000000     0.023700000000     0.014      
H        H      0.418800000000     0.535800000000     0.094400000000     0.014      
H        H      0.611000000000     0.589100000000     0.562900000000     0.014      
H        H      0.614266666667     0.546600000000     0.991700000000     0.014      
H        H      0.472666666667     0.538200000000     0.967800000000     0.014      
H        H      0.474366666667     0.580666666667     0.540400000000     0.014      
H        H      0.634900000000     0.496900000000     0.781100000000     0.014      
H        H      0.587200000000     0.537300000000     0.707600000000     0.014      
H        H      0.463566666667     0.545633333333     0.744700000000     0.014      
H        H      0.515100000000     0.503666666667     0.816800000000     0.014      
H        H      0.502066666667     0.388966666667     0.654200000000     0.014      
H        H      0.501600000000     0.432100000000     0.725600000000     0.014      
H        H      0.581166666667     0.660900000000     0.814800000000     0.014      
H        H      0.576300000000     0.619366666667     0.742300000000     0.014      
H        H      0.659633333333     0.468833333333     0.993100000000     0.014      
H        H      0.371100000000     0.427400000000     0.566300000000     0.014      
H        H      0.408000000000     0.660066666667     0.976300000000     0.014      
H        H      0.355866666667     0.369133333333     0.905600000000     0.014      
H        H      0.569066666667     0.422433333333     0.937100000000     0.014      
H        H      0.619800000000     0.379933333333     0.508300000000     0.014      
H        H      0.494133333333     0.371533333333     0.532200000000     0.014      
H        H      0.447433333333     0.414000000000     0.959600000000     0.014      
H        H      0.447500000000     0.663566666667     0.718900000000     0.014      
H        H      0.448800000000     0.370633333333     0.792400000000     0.014      
H        H      0.633766666667     0.378966666667     0.755300000000     0.014      
H        H      0.637233333333     0.337000000000     0.683200000000     0.014      
H        H      0.399266666667     0.555633333333     0.845800000000     0.014      
H        H      0.351200000000     0.598766666667     0.774400000000     0.014      
H        H      0.371300000000     0.494233333333     0.685200000000     0.014      
H        H      0.414766666667     0.452700000000     0.757700000000     0.014      
H        H      0.664233333333     0.635500000000     0.506900000000     0.014      
H        H      0.660233333333     0.594066666667     0.933700000000     0.014      
H        H      0.423800000000     0.493400000000     0.523700000000     0.014      
H        H      0.418800000000     0.535800000000     0.594400000000     0.014      
H        H      0.611000000000     0.922433333333     0.062900000000     0.014      
H        H      0.614266666667     0.879933333333     0.491700000000     0.014      
H        H      0.472666666667     0.871533333333     0.467800000000     0.014      
H        H      0.474366666667     0.914000000000     0.040400000000     0.014      
H        H      0.634900000000     0.830233333333     0.281100000000     0.014      
H        H      0.587200000000     0.870633333333     0.207600000000     0.014      
H        H      0.463566666667     0.878966666667     0.244700000000     0.014      
H        H      0.515100000000     0.837000000000     0.316800000000     0.014      
H        H      0.502066666667     0.722300000000     0.154200000000     0.014      
H        H      0.501600000000     0.765433333333     0.225600000000     0.014      
H        H      0.581166666667     0.994233333333     0.314800000000     0.014      
H        H      0.576300000000     0.952700000000     0.242300000000     0.014      
H        H      0.659633333333     0.802166666667     0.493100000000     0.014      
H        H      0.371100000000     0.760733333333     0.066300000000     0.014      
H        H      0.408000000000     0.993400000000     0.476300000000     0.014      
H        H      0.355866666667     0.702466666667     0.405600000000     0.014      
H        H      0.569066666667     0.755766666667     0.437100000000     0.014      
H        H      0.619800000000     0.713266666667     0.008300000000     0.014      
H        H      0.494133333333     0.704866666667     0.032200000000     0.014      
H        H      0.447433333333     0.747333333333     0.459600000000     0.014      
H        H      0.447500000000     0.996900000000     0.218900000000     0.014      
H        H      0.448800000000     0.703966666667     0.292400000000     0.014      
H        H      0.633766666667     0.712300000000     0.255300000000     0.014      
H        H      0.637233333333     0.670333333333     0.183200000000     0.014      
H        H      0.399266666667     0.888966666667     0.345800000000     0.014      
H        H      0.351200000000     0.932100000000     0.274400000000     0.014      
H        H      0.371300000000     0.827566666667     0.185200000000     0.014      
H        H      0.414766666667     0.786033333333     0.257700000000     0.014      
H        H      0.664233333333     0.968833333333     0.006900000000     0.014      
H        H      0.660233333333     0.927400000000     0.433700000000     0.014      
H        H      0.423800000000     0.826733333333     0.023700000000     0.014      
H        H      0.418800000000     0.869133333333     0.094400000000     0.014      
H        H      0.611000000000     0.922433333333     0.562900000000     0.014      
H        H      0.614266666667     0.879933333333     0.991700000000     0.014      
H        H      0.472666666667     0.871533333333     0.967800000000     0.014      
H        H      0.474366666667     0.914000000000     0.540400000000     0.014      
H        H      0.634900000000     0.830233333333     0.781100000000     0.014      
H        H      0.587200000000     0.870633333333     0.707600000000     0.014      
H        H      0.463566666667     0.878966666667     0.744700000000     0.014      
H        H      0.515100000000     0.837000000000     0.816800000000     0.014      
H        H      0.502066666667     0.722300000000     0.654200000000     0.014      
H        H      0.501600000000     0.765433333333     0.725600000000     0.014      
H        H      0.581166666667     0.994233333333     0.814800000000     0.014      
H        H      0.576300000000     0.952700000000     0.742300000000     0.014      
H        H      0.659633333333     0.802166666667     0.993100000000     0.014      
H        H      0.371100000000     0.760733333333     0.566300000000     0.014      
H        H      0.408000000000     0.993400000000     0.976300000000     0.014      
H        H      0.355866666667     0.702466666667     0.905600000000     0.014      
H        H      0.569066666667     0.755766666667     0.937100000000     0.014      
H        H      0.619800000000     0.713266666667     0.508300000000     0.014      
H        H      0.494133333333     0.704866666667     0.532200000000     0.014      
H        H      0.447433333333     0.747333333333     0.959600000000     0.014      
H        H      0.447500000000     0.996900000000     0.718900000000     0.014      
H        H      0.448800000000     0.703966666667     0.792400000000     0.014      
H        H      0.633766666667     0.712300000000     0.755300000000     0.014      
H        H      0.637233333333     0.670333333333     0.683200000000     0.014      
H        H      0.399266666667     0.888966666667     0.845800000000     0.014      
H        H      0.351200000000     0.932100000000     0.774400000000     0.014      
H        H      0.371300000000     0.827566666667     0.685200000000     0.014      
H        H      0.414766666667     0.786033333333     0.757700000000     0.014      
H        H      0.664233333333     0.968833333333     0.506900000000     0.014      
H        H      0.660233333333     0.927400000000     0.933700000000     0.014      
H        H      0.423800000000     0.826733333333     0.523700000000     0.014      
H        H      0.418800000000     0.869133333333     0.594400000000     0.014      
H        H      0.944333333333     0.255766666667     0.062900000000     0.014      
H        H      0.947600000000     0.213266666667     0.491700000000     0.014      
H        H      0.806000000000     0.204866666667     0.467800000000     0.014      
H        H      0.807700000000     0.247333333333     0.040400000000     0.014      
H        H      0.968233333333     0.163566666667     0.281100000000     0.014      
H        H      0.920533333333     0.203966666667     0.207600000000     0.014      
H        H      0.796900000000     0.212300000000     0.244700000000     0.014      
H        H      0.848433333333     0.170333333333     0.316800000000     0.014      
H        H      0.835400000000     0.055633333333     0.154200000000     0.014      
H        H      0.834933333333     0.098766666667     0.225600000000     0.014      
H        H      0.914500000000     0.327566666667     0.314800000000     0.014      
H        H      0.909633333333     0.286033333333     0.242300000000     0.014      
H        H      0.992966666667     0.135500000000     0.493100000000     0.014      
H        H      0.704433333333     0.094066666667     0.066300000000     0.014      
H        H      0.741333333333     0.326733333333     0.476300000000     0.014      
H        H      0.689200000000     0.035800000000     0.405600000000     0.014      
H        H      0.902400000000     0.089100000000     0.437100000000     0.014      
H        H      0.953133333333     0.046600000000     0.008300000000     0.014      
H        H      0.827466666667     0.038200000000     0.032200000000     0.014      
H        H      0.780766666667     0.080666666667     0.459600000000     0.014      
H        H      0.780833333333     0.330233333333     0.218900000000     0.014      
H        H      0.782133333333     0.037300000000     0.292400000000     0.014      
H        H      0.967100000000     0.045633333333     0.255300000000     0.014      
H        H      0.970566666667     0.003666666667     0.183200000000     0.014      
H        H      0.732600000000     0.222300000000     0.345800000000     0.014      
H        H      0.684533333333     0.265433333333     0.274400000000     0.014      
H        H      0.704633333333     0.160900000000     0.185200000000     0.014      
H        H      0.748100000000     0.119366666667     0.257700000000     0.014      
H        H      0.997566666667     0.302166666667     0.006900000000     0.014      
H        H      0.993566666667     0.260733333333     0.433700000000     0.014      
H        H      0.757133333333     0.160066666667     0.023700000000     0.014      
H        H      0.752133333333     0.202466666667     0.094400000000     0.014      
H        H      0.944333333333     0.255766666667     0.562900000000     0.014      
H        H      0.947600000000     0.213266666667     0.991700000000     0.014      
H        H      0.806000000000     0.204866666667     0.967800000000     0.014      
H        H      0.807700000000     0.247333333333     0.540400000000     0.014      
H        H      0.968233333333     0.163566666667     0.781100000000     0.014      
H        H      0.920533333333     0.203966666667     0.707600000000     0.014      
H        H      0.796900000000     0.212300000000     0.744700000000     0.014      
H        H      0.848433333333     0.170333333333     0.816800000000     0.014      
H        H      0.835400000000     0.055633333333     0.654200000000     0.014      
H        H      0.834933333333     0.098766666667     0.725600000000     0.014      
H        H      0.914500000000     0.327566666667     0.814800000000     0.014      
H        H      0.909633333333     0.286033333333     0.742300000000     0.014      
H        H      0.992966666667     0.135500000000     0.993100000000     0.014      
H        H      0.704433333333     0.094066666667     0.566300000000     0.014      
H        H      0.741333333333     0.326733333333     0.976300000000     0.014      
H        H      0.689200000000     0.035800000000     0.905600000000     0.014      
H        H      0.902400000000     0.089100000000     0.937100000000     0.014      
H        H      0.953133333333     0.046600000000     0.508300000000     0.014      
H        H      0.827466666667     0.038200000000     0.532200000000     0.014      
H        H      0.780766666667     0.080666666667     0.959600000000     0.014      
H        H      0.780833333333     0.330233333333     0.718900000000     0.014      
H        H      0.782133333333     0.037300000000     0.792400000000     0.014      
H        H      0.967100000000     0.045633333333     0.755300000000     0.014      
H        H      0.970566666667     0.003666666667     0.683200000000     0.014      
H        H      0.732600000000     0.222300000000     0.845800000000     0.014      
H        H      0.684533333333     0.265433333333     0.774400000000     0.014      
H        H      0.704633333333     0.160900000000     0.685200000000     0.014      
H        H      0.748100000000     0.119366666667     0.757700000000     0.014      
H        H      0.997566666667     0.302166666667     0.506900000000     0.014      
H        H      0.993566666667     0.260733333333     0.933700000000     0.014      
H        H      0.757133333333     0.160066666667     0.523700000000     0.014      
H        H      0.752133333333     0.202466666667     0.594400000000     0.014      
H        H      0.944333333333     0.589100000000     0.062900000000     0.014      
H        H      0.947600000000     0.546600000000     0.491700000000     0.014      
H        H      0.806000000000     0.538200000000     0.467800000000     0.014      
H        H      0.807700000000     0.580666666667     0.040400000000     0.014      
H        H      0.968233333333     0.496900000000     0.281100000000     0.014      
H        H      0.920533333333     0.537300000000     0.207600000000     0.014      
H        H      0.796900000000     0.545633333333     0.244700000000     0.014      
H        H      0.848433333333     0.503666666667     0.316800000000     0.014      
H        H      0.835400000000     0.388966666667     0.154200000000     0.014      
H        H      0.834933333333     0.432100000000     0.225600000000     0.014      
H        H      0.914500000000     0.660900000000     0.314800000000     0.014      
H        H      0.909633333333     0.619366666667     0.242300000000     0.014      
H        H      0.992966666667     0.468833333333     0.493100000000     0.014      
H        H      0.704433333333     0.427400000000     0.066300000000     0.014      
H        H      0.741333333333     0.660066666667     0.476300000000     0.014      
H        H      0.689200000000     0.369133333333     0.405600000000     0.014      
H        H      0.902400000000     0.422433333333     0.437100000000     0.014      
H        H      0.953133333333     0.379933333333     0.008300000000     0.014      
H        H      0.827466666667     0.371533333333     0.032200000000     0.014      
H        H      0.780766666667     0.414000000000     0.459600000000     0.014      
H        H      0.780833333333     0.663566666667     0.218900000000     0.014      
H        H      0.782133333333     0.370633333333     0.292400000000     0.014      
H        H      0.967100000000     0.378966666667     0.255300000000     0.014      
H        H      0.970566666667     0.337000000000     0.183200000000     0.014      
H        H      0.732600000000     0.555633333333     0.345800000000     0.014      
H        H      0.684533333333     0.598766666667     0.274400000000     0.014      
H        H      0.704633333333     0.494233333333     0.185200000000     0.014      
H        H      0.748100000000     0.452700000000     0.257700000000     0.014      
H        H      0.997566666667     0.635500000000     0.006900000000     0.014      
H        H      0.993566666667     0.594066666667     0.433700000000     0.014      
H        H      0.757133333333     0.493400000000     0.023700000000     0.014      
H        H      0.752133333333     0.535800000000     0.094400000000     0.014      
H        H      0.944333333333     0.589100000000     0.562900000000     0.014      
H        H      0.947600000000     0.546600000000     0.991700000000     0.014      
H        H      0.806000000000     0.538200000000     0.967800000000     0.014      
H        H      0.807700000000     0.580666666667     0.540400000000     0.014      
H        H      0.968233333333     0.496900000000     0.781100000000     0.014      
H        H      0.920533333333     0.537300000000     0.707600000000     0.014      
H        H      0.796900000000     0.545633333333     0.744700000000     0.014      
H        H      0.848433333333     0.503666666667     0.816800000000     0.014      
H        H      0.835400000000     0.388966666667     0.654200000000     0.014      
H        H      0.834933333333     0.432100000000     0.725600000000     0.014      
H        H      0.914500000000     0.660900000000     0.814800000000     0.014      
H        H      0.909633333333     0.619366666667     0.742300000000     0.014      
H        H      0.992966666667     0.468833333333     0.993100000000     0.014      
H        H      0.704433333333     0.427400000000     0.566300000000     0.014      
H        H      0.741333333333     0.660066666667     0.976300000000     0.014      
H        H      0.689200000000     0.369133333333     0.905600000000     0.014      
H        H      0.902400000000     0.422433333333     0.937100000000     0.014      
H        H      0.953133333333     0.379933333333     0.508300000000     0.014      
H        H      0.827466666667     0.371533333333     0.532200000000     0.014      
H        H      0.780766666667     0.414000000000     0.959600000000     0.014      
H        H      0.780833333333     0.663566666667     0.718900000000     0.014      
H        H      0.782133333333     0.370633333333     0.792400000000     0.014      
H        H      0.967100000000     0.378966666667     0.755300000000     0.014      
H        H      0.970566666667     0.337000000000     0.683200000000     0.014      
H        H      0.732600000000     0.555633333333     0.845800000000     0.014      
H        H      0.684533333333     0.598766666667     0.774400000000     0.014      
H        H      0.704633333333     0.494233333333     0.685200000000     0.014      
H        H      0.748100000000     0.452700000000     0.757700000000     0.014      
H        H      0.997566666667     0.635500000000     0.506900000000     0.014      
H        H      0.993566666667     0.594066666667     0.933700000000     0.014      
H        H      0.757133333333     0.493400000000     0.523700000000     0.014      
H        H      0.752133333333     0.535800000000     0.594400000000     0.014      
H        H      0.944333333333     0.922433333333     0.062900000000     0.014      
H        H      0.947600000000     0.879933333333     0.491700000000     0.014      
H        H      0.806000000000     0.871533333333     0.467800000000     0.014      
H        H      0.807700000000     0.914000000000     0.040400000000     0.014      
H        H      0.968233333333     0.830233333333     0.281100000000     0.014      
H        H      0.920533333333     0.870633333333     0.207600000000     0.014      
H        H      0.796900000000     0.878966666667     0.244700000000     0.014      
H        H      0.848433333333     0.837000000000     0.316800000000     0.014      
H        H      0.835400000000     0.722300000000     0.154200000000     0.014      
H        H      0.834933333333     0.765433333333     0.225600000000     0.014      
H        H      0.914500000000     0.994233333333     0.314800000000     0.014      
H        H      0.909633333333     0.952700000000     0.242300000000     0.014      
H        H      0.992966666667     0.802166666667     0.493100000000     0.014      
H        H      0.704433333333     0.760733333333     0.066300000000     0.014      
H        H      0.741333333333     0.993400000000     0.476300000000     0.014      
H        H      0.689200000000     0.702466666667     0.405600000000     0.014      
H        H      0.902400000000     0.755766666667     0.437100000000     0.014      
H        H      0.953133333333     0.713266666667     0.008300000000     0.014      
H        H      0.827466666667     0.704866666667     0.032200000000     0.014      
H        H      0.780766666667     0.747333333333     0.459600000000     0.014      
H        H      0.780833333333     0.996900000000     0.218900000000     0.014      
H        H      0.782133333333     0.703966666667     0.292400000000     0.014      
H        H      0.967100000000     0.712300000000     0.255300000000     0.014      
H        H      0.970566666667     0.670333333333     0.183200000000     0.014      
H        H      0.732600000000     0.888966666667     0.345800000000     0.014      
H        H      0.684533333333     0.932100000000     0.274400000000     0.014      
H        H      0.704633333333     0.827566666667     0.185200000000     0.014      
H        H      0.748100000000     0.786033333333     0.257700000000     0.014      
H        H      0.997566666667     0.968833333333     0.006900000000     0.014      
H        H      0.993566666667     0.927400000000     0.433700000000     0.014      
H        H      0.757133333333     0.826733333333     0.023700000000     0.014      
H        H      0.752133333333     0.869133333333     0.094400000000     0.014      
H        H      0.944333333333     0.922433333333     0.562900000000     0.014      
H        H      0.947600000000     0.879933333333     0.991700000000     0.014      
H        H      0.806000000000     0.871533333333     0.967800000000     0.014      
H        H      0.807700000000     0.914000000000     0.540400000000     0.014      
H        H      0.968233333333     0.830233333333     0.781100000000     0.014      
H        H      0.920533333333     0.870633333333     0.707600000000     0.014      
H        H      0.796900000000     0.878966666667     0.744700000000     0.014      
H        H      0.848433333333     0.837000000000     0.816800000000     0.014      
H        H      0.835400000000     0.722300000000     0.654200000000     0.014      
H        H      0.834933333333     0.765433333333     0.725600000000     0.014      
H        H      0.914500000000     0.994233333333     0.814800000000     0.014      
H        H      0.909633333333     0.952700000000     0.742300000000     0.014      
H        H      0.992966666667     0.802166666667     0.993100000000     0.014      
H        H      0.704433333333     0.760733333333     0.566300000000     0.014      
H        H      0.741333333333     0.993400000000     0.976300000000     0.014      
H        H      0.689200000000     0.702466666667     0.905600000000     0.014      
H        H      0.902400000000     0.755766666667     0.937100000000     0.014      
H        H      0.953133333333     0.713266666667     0.508300000000     0.014      
H        H      0.827466666667     0.704866666667     0.532200000000     0.014      
H        H      0.780766666667     0.747333333333     0.959600000000     0.014      
H        H      0.780833333333     0.996900000000     0.718900000000     0.014      
H        H      0.782133333333     0.703966666667     0.792400000000     0.014      
H        H      0.967100000000     0.712300000000     0.755300000000     0.014      
H        H      0.970566666667     0.670333333333     0.683200000000     0.014      
H        H      0.732600000000     0.888966666667     0.845800000000     0.014      
H        H      0.684533333333     0.932100000000     0.774400000000     0.014      
H        H      0.704633333333     0.827566666667     0.685200000000     0.014      
H        H      0.748100000000     0.786033333333     0.757700000000     0.014      
H        H      0.997566666667     0.968833333333     0.506900000000     0.014      
H        H      0.993566666667     0.927400000000     0.933700000000     0.014      
H        H      0.757133333333     0.826733333333     0.523700000000     0.014      
H        H      0.752133333333     0.869133333333     0.594400000000     0.014      
C        C      0.249393333333     0.245100000000     0.043480000000     0.065      
C        C      0.251536666667     0.220066666667     0.000710000000     0.065      
C        C      0.209816666667     0.205066666667     0.471150000000     0.065      
C        C      0.168203333333     0.215033333333     0.486610000000     0.065      
C        C      0.169730000000     0.240200000000     0.030190000000     0.065      
C        C      0.210600000000     0.177833333333     0.423900000000     0.065      
C        C      0.266436666667     0.173666666667     0.273610000000     0.065      
C        C      0.238286666667     0.198000000000     0.229860000000     0.065      
C        C      0.187450000000     0.213466666667     0.218950000000     0.065      
C        C      0.165380000000     0.202766666667     0.251640000000     0.065      
C        C      0.196463333333     0.177800000000     0.294490000000     0.065      
C        C      0.155066666667     0.242033333333     0.173000000000     0.065      
C        C      0.184416666667     0.042833333333     0.187150000000     0.065      
C        C      0.184236666667     0.068733333333     0.229610000000     0.065      
C        C      0.207463333333     0.050633333333     0.278090000000     0.065      
C        C      0.230430000000     0.007333333333     0.282090000000     0.065      
C        C      0.228270000000     0.316300000000     0.238710000000     0.065      
C        C      0.206533333333     0.077766666667     0.325300000000     0.065      
C        C      0.008760000000     0.105966666667     0.489580000000     0.065      
C        C      0.036330000000     0.081600000000     0.033790000000     0.065      
C        C      0.061866666667     0.038733333333     0.030000000000     0.065      
C        C      0.057190000000     0.022166666667     0.480770000000     0.065      
C        C      0.026893333333     0.048133333333     0.438680000000     0.065      
C        C      0.093566666667     0.010766666667     0.076100000000     0.065      
C        C      0.220406666667     0.078433333333     0.456520000000     0.065      
C        C      0.251063333333     0.053400000000     0.499290000000     0.065      
C        C      0.229050000000     0.038400000000     0.028850000000     0.065      
C        C      0.177130000000     0.048366666667     0.013390000000     0.065      
C        C      0.149603333333     0.073533333333     0.469810000000     0.065      
C        C      0.261333333333     0.011166666667     0.076100000000     0.065      
C        C      0.084030000000     0.007000000000     0.226390000000     0.065      
C        C      0.085046666667     0.031333333333     0.270140000000     0.065      
C        C      0.041483333333     0.046800000000     0.281050000000     0.065      
C        C      0.330953333333     0.036100000000     0.248360000000     0.065      
C        C      0.000136666667     0.011133333333     0.205510000000     0.065      
C        C      0.039733333333     0.075366666667     0.327000000000     0.065      
C        C      0.059650000000     0.209500000000     0.312850000000     0.065      
C        C      0.031163333333     0.235400000000     0.270390000000     0.065      
C        C      0.022070000000     0.217300000000     0.221910000000     0.065      
C        C      0.042370000000     0.174000000000     0.217910000000     0.065      
C        C      0.069130000000     0.149633333333     0.261290000000     0.065      
C        C      0.323000000000     0.244433333333     0.174700000000     0.065      
C        C      0.015706666667     0.272633333333     0.010420000000     0.065      
C        C      0.013803333333     0.248266666667     0.466210000000     0.065      
C        C      0.041866666667     0.205400000000     0.470000000000     0.065      
C        C      0.070010000000     0.188833333333     0.019230000000     0.065      
C        C      0.067773333333     0.214800000000     0.061320000000     0.065      
C        C      0.042833333333     0.177433333333     0.423900000000     0.065      
C        C      0.249393333333     0.245100000000     0.543480000000     0.065      
C        C      0.251536666667     0.220066666667     0.500710000000     0.065      
C        C      0.209816666667     0.205066666667     0.971150000000     0.065      
C        C      0.168203333333     0.215033333333     0.986610000000     0.065      
C        C      0.169730000000     0.240200000000     0.530190000000     0.065      
C        C      0.210600000000     0.177833333333     0.923900000000     0.065      
C        C      0.266436666667     0.173666666667     0.773610000000     0.065      
C        C      0.238286666667     0.198000000000     0.729860000000     0.065      
C        C      0.187450000000     0.213466666667     0.718950000000     0.065      
C        C      0.165380000000     0.202766666667     0.751640000000     0.065      
C        C      0.196463333333     0.177800000000     0.794490000000     0.065      
C        C      0.155066666667     0.242033333333     0.673000000000     0.065      
C        C      0.184416666667     0.042833333333     0.687150000000     0.065      
C        C      0.184236666667     0.068733333333     0.729610000000     0.065      
C        C      0.207463333333     0.050633333333     0.778090000000     0.065      
C        C      0.230430000000     0.007333333333     0.782090000000     0.065      
C        C      0.228270000000     0.316300000000     0.738710000000     0.065      
C        C      0.206533333333     0.077766666667     0.825300000000     0.065      
C        C      0.008760000000     0.105966666667     0.989580000000     0.065      
C        C      0.036330000000     0.081600000000     0.533790000000     0.065      
C        C      0.061866666667     0.038733333333     0.530000000000     0.065      
C        C      0.057190000000     0.022166666667     0.980770000000     0.065      
C        C      0.026893333333     0.048133333333     0.938680000000     0.065      
C        C      0.093566666667     0.010766666667     0.576100000000     0.065      
C        C      0.220406666667     0.078433333333     0.956520000000     0.065      
C        C      0.251063333333     0.053400000000     0.999290000000     0.065      
C        C      0.229050000000     0.038400000000     0.528850000000     0.065      
C        C      0.177130000000     0.048366666667     0.513390000000     0.065      
C        C      0.149603333333     0.073533333333     0.969810000000     0.065      
C        C      0.261333333333     0.011166666667     0.576100000000     0.065      
C        C      0.084030000000     0.007000000000     0.726390000000     0.065      
C        C      0.085046666667     0.031333333333     0.770140000000     0.065      
C        C      0.041483333333     0.046800000000     0.781050000000     0.065      
C        C      0.330953333333     0.036100000000     0.748360000000     0.065      
C        C      0.000136666667     0.011133333333     0.705510000000     0.065      
C        C      0.039733333333     0.075366666667     0.827000000000     0.065      
C        C      0.059650000000     0.209500000000     0.812850000000     0.065      
C        C      0.031163333333     0.235400000000     0.770390000000     0.065      
C        C      0.022070000000     0.217300000000     0.721910000000     0.065      
C        C      0.042370000000     0.174000000000     0.717910000000     0.065      
C        C      0.069130000000     0.149633333333     0.761290000000     0.065      
C        C      0.323000000000     0.244433333333     0.674700000000     0.065      
C        C      0.015706666667     0.272633333333     0.510420000000     0.065      
C        C      0.013803333333     0.248266666667     0.966210000000     0.065      
C        C      0.041866666667     0.205400000000     0.970000000000     0.065      
C        C      0.070010000000     0.188833333333     0.519230000000     0.065      
C        C      0.067773333333     0.214800000000     0.561320000000     0.065      
C        C      0.042833333333     0.177433333333     0.923900000000     0.065      
C        C      0.249393333333     0.578433333333     0.043480000000     0.065      
C        C      0.251536666667     0.553400000000     0.000710000000     0.065      
C        C      0.209816666667     0.538400000000     0.471150000000     0.065      
C        C      0.168203333333     0.548366666667     0.486610000000     0.065      
C        C      0.169730000000     0.573533333333     0.030190000000     0.065      
C        C      0.210600000000     0.511166666667     0.423900000000     0.065      
C        C      0.266436666667     0.507000000000     0.273610000000     0.065      
C        C      0.238286666667     0.531333333333     0.229860000000     0.065      
C        C      0.187450000000     0.546800000000     0.218950000000     0.065      
C        C      0.165380000000     0.536100000000     0.251640000000     0.065      
C        C      0.196463333333     0.511133333333     0.294490000000     0.065      
C        C      0.155066666667     0.575366666667     0.173000000000     0.065      
C        C      0.184416666667     0.376166666667     0.187150000000     0.065      
C        C      0.184236666667     0.402066666667     0.229610000000     0.065      
C        C      0.207463333333     0.383966666667     0.278090000000     0.065      
C        C      0.230430000000     0.340666666667     0.282090000000     0.065      
C        C      0.228270000000     0.649633333333     0.238710000000     0.065      
C        C      0.206533333333     0.411100000000     0.325300000000     0.065      
C        C      0.008760000000     0.439300000000     0.489580000000     0.065      
C        C      0.036330000000     0.414933333333     0.033790000000     0.065      
C        C      0.061866666667     0.372066666667     0.030000000000     0.065      
C        C      0.057190000000     0.355500000000     0.480770000000     0.065      
C        C      0.026893333333     0.381466666667     0.438680000000     0.065      
C        C      0.093566666667     0.344100000000     0.076100000000     0.065      
C        C      0.220406666667     0.411766666667     0.456520000000     0.065      
C        C      0.251063333333     0.386733333333     0.499290000000     0.065      
C        C      0.229050000000     0.371733333333     0.028850000000     0.065      
C        C      0.177130000000     0.381700000000     0.013390000000     0.065      
C        C      0.149603333333     0.406866666667     0.469810000000     0.065      
C        C      0.261333333333     0.344500000000     0.076100000000     0.065      
C        C      0.084030000000     0.340333333333     0.226390000000     0.065      
C        C      0.085046666667     0.364666666667     0.270140000000     0.065      
C        C      0.041483333333     0.380133333333     0.281050000000     0.065      
C        C      0.330953333333     0.369433333333     0.248360000000     0.065      
C        C      0.000136666667     0.344466666667     0.205510000000     0.065      
C        C      0.039733333333     0.408700000000     0.327000000000     0.065      
C        C      0.059650000000     0.542833333333     0.312850000000     0.065      
C        C      0.031163333333     0.568733333333     0.270390000000     0.065      
C        C      0.022070000000     0.550633333333     0.221910000000     0.065      
C        C      0.042370000000     0.507333333333     0.217910000000     0.065      
C        C      0.069130000000     0.482966666667     0.261290000000     0.065      
C        C      0.323000000000     0.577766666667     0.174700000000     0.065      
C        C      0.015706666667     0.605966666667     0.010420000000     0.065      
C        C      0.013803333333     0.581600000000     0.466210000000     0.065      
C        C      0.041866666667     0.538733333333     0.470000000000     0.065      
C        C      0.070010000000     0.522166666667     0.019230000000     0.065      
C        C      0.067773333333     0.548133333333     0.061320000000     0.065      
C        C      0.042833333333     0.510766666667     0.423900000000     0.065      
C        C      0.249393333333     0.578433333333     0.543480000000     0.065      
C        C      0.251536666667     0.553400000000     0.500710000000     0.065      
C        C      0.209816666667     0.538400000000     0.971150000000     0.065      
C        C      0.168203333333     0.548366666667     0.986610000000     0.065      
C        C      0.169730000000     0.573533333333     0.530190000000     0.065      
C        C      0.210600000000     0.511166666667     0.923900000000     0.065      
C        C      0.266436666667     0.507000000000     0.773610000000     0.065      
C        C      0.238286666667     0.531333333333     0.729860000000     0.065      
C        C      0.187450000000     0.546800000000     0.718950000000     0.065      
C        C      0.165380000000     0.536100000000     0.751640000000     0.065      
C        C      0.196463333333     0.511133333333     0.794490000000     0.065      
C        C      0.155066666667     0.575366666667     0.673000000000     0.065      
C        C      0.184416666667     0.376166666667     0.687150000000     0.065      
C        C      0.184236666667     0.402066666667     0.729610000000     0.065      
C        C      0.207463333333     0.383966666667     0.778090000000     0.065      
C        C      0.230430000000     0.340666666667     0.782090000000     0.065      
C        C      0.228270000000     0.649633333333     0.738710000000     0.065      
C        C      0.206533333333     0.411100000000     0.825300000000     0.065      
C        C      0.008760000000     0.439300000000     0.989580000000     0.065      
C        C      0.036330000000     0.414933333333     0.533790000000     0.065      
C        C      0.061866666667     0.372066666667     0.530000000000     0.065      
C        C      0.057190000000     0.355500000000     0.980770000000     0.065      
C        C      0.026893333333     0.381466666667     0.938680000000     0.065      
C        C      0.093566666667     0.344100000000     0.576100000000     0.065      
C        C      0.220406666667     0.411766666667     0.956520000000     0.065      
C        C      0.251063333333     0.386733333333     0.999290000000     0.065      
C        C      0.229050000000     0.371733333333     0.528850000000     0.065      
C        C      0.177130000000     0.381700000000     0.513390000000     0.065      
C        C      0.149603333333     0.406866666667     0.969810000000     0.065      
C        C      0.261333333333     0.344500000000     0.576100000000     0.065      
C        C      0.084030000000     0.340333333333     0.726390000000     0.065      
C        C      0.085046666667     0.364666666667     0.770140000000     0.065      
C        C      0.041483333333     0.380133333333     0.781050000000     0.065      
C        C      0.330953333333     0.369433333333     0.748360000000     0.065      
C        C      0.000136666667     0.344466666667     0.705510000000     0.065      
C        C      0.039733333333     0.408700000000     0.827000000000     0.065      
C        C      0.059650000000     0.542833333333     0.812850000000     0.065      
C        C      0.031163333333     0.568733333333     0.770390000000     0.065      
C        C      0.022070000000     0.550633333333     0.721910000000     0.065      
C        C      0.042370000000     0.507333333333     0.717910000000     0.065      
C        C      0.069130000000     0.482966666667     0.761290000000     0.065      
C        C      0.323000000000     0.577766666667     0.674700000000     0.065      
C        C      0.015706666667     0.605966666667     0.510420000000     0.065      
C        C      0.013803333333     0.581600000000     0.966210000000     0.065      
C        C      0.041866666667     0.538733333333     0.970000000000     0.065      
C        C      0.070010000000     0.522166666667     0.519230000000     0.065      
C        C      0.067773333333     0.548133333333     0.561320000000     0.065      
C        C      0.042833333333     0.510766666667     0.923900000000     0.065      
C        C      0.249393333333     0.911766666667     0.043480000000     0.065      
C        C      0.251536666667     0.886733333333     0.000710000000     0.065      
C        C      0.209816666667     0.871733333333     0.471150000000     0.065      
C        C      0.168203333333     0.881700000000     0.486610000000     0.065      
C        C      0.169730000000     0.906866666667     0.030190000000     0.065      
C        C      0.210600000000     0.844500000000     0.423900000000     0.065      
C        C      0.266436666667     0.840333333333     0.273610000000     0.065      
C        C      0.238286666667     0.864666666667     0.229860000000     0.065      
C        C      0.187450000000     0.880133333333     0.218950000000     0.065      
C        C      0.165380000000     0.869433333333     0.251640000000     0.065      
C        C      0.196463333333     0.844466666667     0.294490000000     0.065      
C        C      0.155066666667     0.908700000000     0.173000000000     0.065      
C        C      0.184416666667     0.709500000000     0.187150000000     0.065      
C        C      0.184236666667     0.735400000000     0.229610000000     0.065      
C        C      0.207463333333     0.717300000000     0.278090000000     0.065      
C        C      0.230430000000     0.674000000000     0.282090000000     0.065      
C        C      0.228270000000     0.982966666667     0.238710000000     0.065      
C        C      0.206533333333     0.744433333333     0.325300000000     0.065      
C        C      0.008760000000     0.772633333333     0.489580000000     0.065      
C        C      0.036330000000     0.748266666667     0.033790000000     0.065      
C        C      0.061866666667     0.705400000000     0.030000000000     0.065      
C        C      0.057190000000     0.688833333333     0.480770000000     0.065      
C        C      0.026893333333     0.714800000000     0.438680000000     0.065      
C        C      0.093566666667     0.677433333333     0.076100000000     0.065      
C        C      0.220406666667     0.745100000000     0.456520000000     0.065      
C        C      0.251063333333     0.720066666667     0.499290000000     0.065      
C        C      0.229050000000     0.705066666667     0.028850000000     0.065      
C        C      0.177130000000     0.715033333333     0.013390000000     0.065      
C        C      0.149603333333     0.740200000000     0.469810000000     0.065      
C        C      0.261333333333     0.677833333333     0.076100000000     0.065      
C        C      0.084030000000     0.673666666667     0.226390000000     0.065      
C        C      0.085046666667     0.698000000000     0.270140000000     0.065      
C        C      0.041483333333     0.713466666667     0.281050000000     0.065      
C        C      0.330953333333     0.702766666667     0.248360000000     0.065      
C        C      0.000136666667     0.677800000000     0.205510000000     0.065      
C        C      0.039733333333     0.742033333333     0.327000000000     0.065      
C        C      0.059650000000     0.876166666667     0.312850000000     0.065      
C        C      0.031163333333     0.902066666667     0.270390000000     0.065      
C        C      0.022070000000     0.883966666667     0.221910000000     0.065      
C        C      0.042370000000     0.840666666667     0.217910000000     0.065      
C        C      0.069130000000     0.816300000000     0.261290000000     0.065      
C        C      0.323000000000     0.911100000000     0.174700000000     0.065      
C        C      0.015706666667     0.939300000000     0.010420000000     0.065      
C        C      0.013803333333     0.914933333333     0.466210000000     0.065      
C        C      0.041866666667     0.872066666667     0.470000000000     0.065      
C        C      0.070010000000     0.855500000000     0.019230000000     0.065      
C        C      0.067773333333     0.881466666667     0.061320000000     0.065      
C        C      0.042833333333     0.844100000000     0.423900000000     0.065      
C        C      0.249393333333     0.911766666667     0.543480000000     0.065      
C        C      0.251536666667     0.886733333333     0.500710000000     0.065      
C        C      0.209816666667     0.871733333333     0.971150000000     0.065      
C        C      0.168203333333     0.881700000000     0.986610000000     0.065      
C        C      0.169730000000     0.906866666667     0.530190000000     0.065      
C        C      0.210600000000     0.844500000000     0.923900000000     0.065      
C        C      0.266436666667     0.840333333333     0.773610000000     0.065      
C        C      0.238286666667     0.864666666667     0.729860000000     0.065      
C        C      0.187450000000     0.880133333333     0.718950000000     0.065      
C        C      0.165380000000     0.869433333333     0.751640000000     0.065      
C        C      0.196463333333     0.844466666667     0.794490000000     0.065      
C        C      0.155066666667     0.908700000000     0.673000000000     0.065      
C        C      0.184416666667     0.709500000000     0.687150000000     0.065      
C        C      0.184236666667     0.735400000000     0.729610000000     0.065      
C        C      0.207463333333     0.717300000000     0.778090000000     0.065      
C        C      0.230430000000     0.674000000000     0.782090000000     0.065      
C        C      0.228270000000     0.982966666667     0.738710000000     0.065      
C        C      0.206533333333     0.744433333333     0.825300000000     0.065      
C        C      0.008760000000     0.772633333333     0.989580000000     0.065      
C        C      0.036330000000     0.748266666667     0.533790000000     0.065      
C        C      0.061866666667     0.705400000000     0.530000000000     0.065      
C        C      0.057190000000     0.688833333333     0.980770000000     0.065      
C        C      0.026893333333     0.714800000000     0.938680000000     0.065      
C        C      0.093566666667     0.677433333333     0.576100000000     0.065      
C        C      0.220406666667     0.745100000000     0.956520000000     0.065      
C        C      0.251063333333     0.720066666667     0.999290000000     0.065      
C        C      0.229050000000     0.705066666667     0.528850000000     0.065      
C        C      0.177130000000     0.715033333333     0.513390000000     0.065      
C        C      0.149603333333     0.740200000000     0.969810000000     0.065      
C        C      0.261333333333     0.677833333333     0.576100000000     0.065      
C        C      0.084030000000     0.673666666667     0.726390000000     0.065      
C        C      0.085046666667     0.698000000000     0.770140000000     0.065      
C        C      0.041483333333     0.713466666667     0.781050000000     0.065      
C        C      0.330953333333     0.702766666667     0.748360000000     0.065      
C        C      0.000136666667     0.677800000000     0.705510000000     0.065      
C        C      0.039733333333     0.742033333333     0.827000000000     0.065      
C        C      0.059650000000     0.876166666667     0.812850000000     0.065      
C        C      0.031163333333     0.902066666667     0.770390000000     0.065      
C        C      0.022070000000     0.883966666667     0.721910000000     0.065      
C        C      0.042370000000     0.840666666667     0.717910000000     0.065      
C        C      0.069130000000     0.816300000000     0.761290000000     0.065      
C        C      0.323000000000     0.911100000000     0.674700000000     0.065      
C        C      0.015706666667     0.939300000000     0.510420000000     0.065      
C        C      0.013803333333     0.914933333333     0.966210000000     0.065      
C        C      0.041866666667     0.872066666667     0.970000000000     0.065      
C        C      0.070010000000     0.855500000000     0.519230000000     0.065      
C        C      0.067773333333     0.881466666667     0.561320000000     0.065      
C        C      0.042833333333     0.844100000000     0.923900000000     0.065      
C        C      0.582726666667     0.245100000000     0.043480000000     0.065      
C        C      0.584870000000     0.220066666667     0.000710000000     0.065      
C        C      0.543150000000     0.205066666667     0.471150000000     0.065      
C        C      0.501536666667     0.215033333333     0.486610000000     0.065      
C        C      0.503063333333     0.240200000000     0.030190000000     0.065      
C        C      0.543933333333     0.177833333333     0.423900000000     0.065      
C        C      0.599770000000     0.173666666667     0.273610000000     0.065      
C        C      0.571620000000     0.198000000000     0.229860000000     0.065      
C        C      0.520783333333     0.213466666667     0.218950000000     0.065      
C        C      0.498713333333     0.202766666667     0.251640000000     0.065      
C        C      0.529796666667     0.177800000000     0.294490000000     0.065      
C        C      0.488400000000     0.242033333333     0.173000000000     0.065      
C        C      0.517750000000     0.042833333333     0.187150000000     0.065      
C        C      0.517570000000     0.068733333333     0.229610000000     0.065      
C        C      0.540796666667     0.050633333333     0.278090000000     0.065      
C        C      0.563763333333     0.007333333333     0.282090000000     0.065      
C        C      0.561603333333     0.316300000000     0.238710000000     0.065      
C        C      0.539866666667     0.077766666667     0.325300000000     0.065      
C        C      0.342093333333     0.105966666667     0.489580000000     0.065      
C        C      0.369663333333     0.081600000000     0.033790000000     0.065      
C        C      0.395200000000     0.038733333333     0.030000000000     0.065      
C        C      0.390523333333     0.022166666667     0.480770000000     0.065      
C        C      0.360226666667     0.048133333333     0.438680000000     0.065      
C        C      0.426900000000     0.010766666667     0.076100000000     0.065      
C        C      0.553740000000     0.078433333333     0.456520000000     0.065      
C        C      0.584396666667     0.053400000000     0.499290000000     0.065      
C        C      0.562383333333     0.038400000000     0.028850000000     0.065      
C        C      0.510463333333     0.048366666667     0.013390000000     0.065      
C        C      0.482936666667     0.073533333333     0.469810000000     0.065      
C        C      0.594666666667     0.011166666667     0.076100000000     0.065      
C        C      0.417363333333     0.007000000000     0.226390000000     0.065      
C        C      0.418380000000     0.031333333333     0.270140000000     0.065      
C        C      0.374816666667     0.046800000000     0.281050000000     0.065      
C        C      0.664286666667     0.036100000000     0.248360000000     0.065      
C        C      0.333470000000     0.011133333333     0.205510000000     0.065      
C        C      0.373066666667     0.075366666667     0.327000000000     0.065      
C        C      0.392983333333     0.209500000000     0.312850000000     0.065      
C        C      0.364496666667     0.235400000000     0.270390000000     0.065      
C        C      0.355403333333     0.217300000000     0.221910000000     0.065      
C        C      0.375703333333     0.174000000000     0.217910000000     0.065      
C        C      0.402463333333     0.149633333333     0.261290000000     0.065      
C        C      0.656333333333     0.244433333333     0.174700000000     0.065      
C        C      0.349040000000     0.272633333333     0.010420000000     0.065      
C        C      0.347136666667     0.248266666667     0.466210000000     0.065      
C        C      0.375200000000     0.205400000000     0.470000000000     0.065      
C        C      0.403343333333     0.188833333333     0.019230000000     0.065      
C        C      0.401106666667     0.214800000000     0.061320000000     0.065      
C        C      0.376166666667     0.177433333333     0.423900000000     0.065      
C        C      0.582726666667     0.245100000000     0.543480000000     0.065      
C        C      0.584870000000     0.220066666667     0.500710000000     0.065      
C        C      0.543150000000     0.205066666667     0.971150000000     0.065      
C        C      0.501536666667     0.215033333333     0.986610000000     0.065      
C        C      0.503063333333     0.240200000000     0.530190000000     0.065      
C        C      0.543933333333     0.177833333333     0.923900000000     0.065      
C        C      0.599770000000     0.173666666667     0.773610000000     0.065      
C        C      0.571620000000     0.198000000000     0.729860000000     0.065      
C        C      0.520783333333     0.213466666667     0.718950000000     0.065      
C        C      0.498713333333     0.202766666667     0.751640000000     0.065      
C        C      0.529796666667     0.177800000000     0.794490000000     0.065      
C        C      0.488400000000     0.242033333333     0.673000000000     0.065      
C        C      0.517750000000     0.042833333333     0.687150000000     0.065      
C        C      0.517570000000     0.068733333333     0.729610000000     0.065      
C        C      0.540796666667     0.050633333333     0.778090000000     0.065      
C        C      0.563763333333     0.007333333333     0.782090000000     0.065      
C        C      0.561603333333     0.316300000000     0.738710000000     0.065      
C        C      0.539866666667     0.077766666667     0.825300000000     0.065      
C        C      0.342093333333     0.105966666667     0.989580000000     0.065      
C        C      0.369663333333     0.081600000000     0.533790000000     0.065      
C        C      0.395200000000     0.038733333333     0.530000000000     0.065      
C        C      0.390523333333     0.022166666667     0.980770000000     0.065      
C        C      0.360226666667     0.048133333333     0.938680000000     0.065      
C        C      0.426900000000     0.010766666667     0.576100000000     0.065      
C        C      0.553740000000     0.078433333333     0.956520000000     0.065      
C        C      0.584396666667     0.053400000000     0.999290000000     0.065      
C        C      0.562383333333     0.038400000000     0.528850000000     0.065      
C        C      0.510463333333     0.048366666667     0.513390000000     0.065      
C        C      0.482936666667     0.073533333333     0.969810000000     0.065      
C        C      0.594666666667     0.011166666667     0.576100000000     0.065      
C        C      0.417363333333     0.007000000000     0.726390000000     0.065      
C        C      0.418380000000     0.031333333333     0.770140000000     0.065      
C        C      0.374816666667     0.046800000000     0.781050000000     0.065      
C        C      0.664286666667     0.036100000000     0.748360000000     0.065      
C        C      0.333470000000     0.011133333333     0.705510000000     0.065      
C        C      0.373066666667     0.075366666667     0.827000000000     0.065      
C        C      0.392983333333     0.209500000000     0.812850000000     0.065      
C        C      0.364496666667     0.235400000000     0.770390000000     0.065      
C        C      0.355403333333     0.217300000000     0.721910000000     0.065      
C        C      0.375703333333     0.174000000000     0.717910000000     0.065      
C        C      0.402463333333     0.149633333333     0.761290000000     0.065      
C        C      0.656333333333     0.244433333333     0.674700000000     0.065      
C        C      0.349040000000     0.272633333333     0.510420000000     0.065      
C        C      0.347136666667     0.248266666667     0.966210000000     0.065      
C        C      0.375200000000     0.205400000000     0.970000000000     0.065      
C        C      0.403343333333     0.188833333333     0.519230000000     0.065      
C        C      0.401106666667     0.214800000000     0.561320000000     0.065      
C        C      0.376166666667     0.177433333333     0.923900000000     0.065      
C        C      0.582726666667     0.578433333333     0.043480000000     0.065      
C        C      0.584870000000     0.553400000000     0.000710000000     0.065      
C        C      0.543150000000     0.538400000000     0.471150000000     0.065      
C        C      0.501536666667     0.548366666667     0.486610000000     0.065      
C        C      0.503063333333     0.573533333333     0.030190000000     0.065      
C        C      0.543933333333     0.511166666667     0.423900000000     0.065      
C        C      0.599770000000     0.507000000000     0.273610000000     0.065      
C        C      0.571620000000     0.531333333333     0.229860000000     0.065      
C        C      0.520783333333     0.546800000000     0.218950000000     0.065      
C        C      0.498713333333     0.536100000000     0.251640000000     0.065      
C        C      0.529796666667     0.511133333333     0.294490000000     0.065      
C        C      0.488400000000     0.575366666667     0.173000000000     0.065      
C        C      0.517750000000     0.376166666667     0.187150000000     0.065      
C        C      0.517570000000     0.402066666667     0.229610000000     0.065      
C        C      0.540796666667     0.383966666667     0.278090000000     0.065      
C        C      0.563763333333     0.340666666667     0.282090000000     0.065      
C        C      0.561603333333     0.649633333333     0.238710000000     0.065      
C        C      0.539866666667     0.411100000000     0.325300000000     0.065      
C        C      0.342093333333     0.439300000000     0.489580000000     0.065      
C        C      0.369663333333     0.414933333333     0.033790000000     0.065      
C        C      0.395200000000     0.372066666667     0.030000000000     0.065      
C        C      0.390523333333     0.355500000000     0.480770000000     0.065      
C        C      0.360226666667     0.381466666667     0.438680000000     0.065      
C        C      0.426900000000     0.344100000000     0.076100000000     0.065      
C        C      0.553740000000     0.411766666667     0.456520000000     0.065      
C        C      0.584396666667     0.386733333333     0.499290000000     0.065      
C        C      0.562383333333     0.371733333333     0.028850000000     0.065      
C        C      0.510463333333     0.381700000000     0.013390000000     0.065      
C        C      0.482936666667     0.406866666667     0.469810000000     0.065      
C        C      0.594666666667     0.344500000000     0.076100000000     0.065      
C        C      0.417363333333     0.340333333333     0.226390000000     0.065      
C        C      0.418380000000     0.364666666667     0.270140000000     0.065      
C        C      0.374816666667     0.380133333333     0.281050000000     0.065      
C        C      0.664286666667     0.369433333333     0.248360000000     0.065      
C        C      0.333470000000     0.344466666667     0.205510000000     0.065      
C        C      0.373066666667     0.408700000000     0.327000000000     0.065      
C        C      0.392983333333     0.542833333333     0.312850000000     0.065      
C        C      0.364496666667     0.568733333333     0.270390000000     0.065      
C        C      0.355403333333     0.550633333333     0.221910000000     0.065      
C        C      0.375703333333     0.507333333333     0.217910000000     0.065      
C        C      0.402463333333     0.482966666667     0.261290000000     0.065      
C        C      0.656333333333     0.577766666667     0.174700000000     0.065      
C        C      0.349040000000     0.605966666667     0.010420000000     0.065      
C        C      0.347136666667     0.581600000000     0.466210000000     0.065      
C        C      0.375200000000     0.538733333333     0.470000000000     0.065      
C        C      0.403343333333     0.522166666667     0.019230000000     0.065      
C        C      0.401106666667     0.548133333333     0.061320000000     0.065      
C        C      0.376166666667     0.510766666667     0.423900000000     0.065      
C        C      0.582726666667     0.578433333333     0.543480000000     0.065      
C        C      0.584870000000     0.553400000000     0.500710000000     0.065      
C        C      0.543150000000     0.538400000000     0.971150000000     0.065      
C        C      0.501536666667     0.548366666667     0.986610000000     0.065      
C        C      0.503063333333     0.573533333333     0.530190000000     0.065      
C        C      0.543933333333     0.511166666667     0.923900000000     0.065      
C        C      0.599770000000     0.507000000000     0.773610000000     0.065      
C        C      0.571620000000     0.531333333333     0.729860000000     0.065      
C        C      0.520783333333     0.546800000000     0.718950000000     0.065      
C        C      0.498713333333     0.536100000000     0.751640000000     0.065      
C        C      0.529796666667     0.511133333333     0.794490000000     0.065      
C        C      0.488400000000     0.575366666667     0.673000000000     0.065      
C        C      0.517750000000     0.376166666667     0.687150000000     0.065      
C        C      0.517570000000     0.402066666667     0.729610000000     0.065      
C        C      0.540796666667     0.383966666667     0.778090000000     0.065      
C        C      0.563763333333     0.340666666667     0.782090000000     0.065      
C        C      0.561603333333     0.649633333333     0.738710000000     0.065      
C        C      0.539866666667     0.411100000000     0.825300000000     0.065      
C        C      0.342093333333     0.439300000000     0.989580000000     0.065      
C        C      0.369663333333     0.414933333333     0.533790000000     0.065      
C        C      0.395200000000     0.372066666667     0.530000000000     0.065      
C        C      0.390523333333     0.355500000000     0.980770000000     0.065      
C        C      0.360226666667     0.381466666667     0.938680000000     0.065      
C        C      0.426900000000     0.344100000000     0.576100000000     0.065      
C        C      0.553740000000     0.411766666667     0.956520000000     0.065      
C        C      0.584396666667     0.386733333333     0.999290000000     0.065      
C        C      0.562383333333     0.371733333333     0.528850000000     0.065      
C        C      0.510463333333     0.381700000000     0.513390000000     0.065      
C        C      0.482936666667     0.406866666667     0.969810000000     0.065      
C        C      0.594666666667     0.344500000000     0.576100000000     0.065      
C        C      0.417363333333     0.340333333333     0.726390000000     0.065      
C        C      0.418380000000     0.364666666667     0.770140000000     0.065      
C        C      0.374816666667     0.380133333333     0.781050000000     0.065      
C        C      0.664286666667     0.369433333333     0.748360000000     0.065      
C        C      0.333470000000     0.344466666667     0.705510000000     0.065      
C        C      0.373066666667     0.408700000000     0.827000000000     0.065      
C        C      0.392983333333     0.542833333333     0.812850000000     0.065      
C        C      0.364496666667     0.568733333333     0.770390000000     0.065      
C        C      0.355403333333     0.550633333333     0.721910000000     0.065      
C        C      0.375703333333     0.507333333333     0.717910000000     0.065      
C        C      0.402463333333     0.482966666667     0.761290000000     0.065      
C        C      0.656333333333     0.577766666667     0.674700000000     0.065      
C        C      0.349040000000     0.605966666667     0.510420000000     0.065      
C        C      0.347136666667     0.581600000000     0.966210000000     0.065      
C        C      0.375200000000     0.538733333333     0.970000000000     0.065      
C        C      0.403343333333     0.522166666667     0.519230000000     0.065      
C        C      0.401106666667     0.548133333333     0.561320000000     0.065      
C        C      0.376166666667     0.510766666667     0.923900000000     0.065      
C        C      0.582726666667     0.911766666667     0.043480000000     0.065      
C        C      0.584870000000     0.886733333333     0.000710000000     0.065      
C        C      0.543150000000     0.871733333333     0.471150000000     0.065      
C        C      0.501536666667     0.881700000000     0.486610000000     0.065      
C        C      0.503063333333     0.906866666667     0.030190000000     0.065      
C        C      0.543933333333     0.844500000000     0.423900000000     0.065      
C        C      0.599770000000     0.840333333333     0.273610000000     0.065      
C        C      0.571620000000     0.864666666667     0.229860000000     0.065      
C        C      0.520783333333     0.880133333333     0.218950000000     0.065      
C        C      0.498713333333     0.869433333333     0.251640000000     0.065      
C        C      0.529796666667     0.844466666667     0.294490000000     0.065      
C        C      0.488400000000     0.908700000000     0.173000000000     0.065      
C        C      0.517750000000     0.709500000000     0.187150000000     0.065      
C        C      0.517570000000     0.735400000000     0.229610000000     0.065      
C        C      0.540796666667     0.717300000000     0.278090000000     0.065      
C        C      0.563763333333     0.674000000000     0.282090000000     0.065      
C        C      0.561603333333     0.982966666667     0.238710000000     0.065      
C        C      0.539866666667     0.744433333333     0.325300000000     0.065      
C        C      0.342093333333     0.772633333333     0.489580000000     0.065      
C        C      0.369663333333     0.748266666667     0.033790000000     0.065      
C        C      0.395200000000     0.705400000000     0.030000000000     0.065      
C        C      0.390523333333     0.688833333333     0.480770000000     0.065      
C        C      0.360226666667     0.714800000000     0.438680000000     0.065      
C        C      0.426900000000     0.677433333333     0.076100000000     0.065      
C        C      0.553740000000     0.745100000000     0.456520000000     0.065      
C        C      0.584396666667     0.720066666667     0.499290000000     0.065      
C        C      0.562383333333     0.705066666667     0.028850000000     0.065      
C        C      0.510463333333     0.715033333333     0.013390000000     0.065      
C        C      0.482936666667     0.740200000000     0.469810000000     0.065      
C        C      0.594666666667     0.677833333333     0.076100000000     0.065      
C        C      0.417363333333     0.673666666667     0.226390000000     0.065      
C        C      0.418380000000     0.698000000000     0.270140000000     0.065      
C        C      0.374816666667     0.713466666667     0.281050000000     0.065      
C        C      0.664286666667     0.702766666667     0.248360000000     0.065      
C        C      0.333470000000     0.677800000000     0.205510000000     0.065      
C        C      0.373066666667     0.742033333333     0.327000000000     0.065      
C        C      0.392983333333     0.876166666667     0.312850000000     0.065      
C        C      0.364496666667     0.902066666667     0.270390000000     0.065      
C        C      0.355403333333     0.883966666667     0.221910000000     0.065      
C        C      0.375703333333     0.840666666667     0.217910000000     0.065      
C        C      0.402463333333     0.816300000000     0.261290000000     0.065      
C        C      0.656333333333     0.911100000000     0.174700000000     0.065      
C        C      0.349040000000     0.939300000000     0.010420000000     0.065      
C        C      0.347136666667     0.914933333333     0.466210000000     0.065      
C        C      0.375200000000     0.872066666667     0.470000000000     0.065      
C        C      0.403343333333     0.855500000000     0.019230000000     0.065      
C        C      0.401106666667     0.881466666667     0.061320000000     0.065      
C        C      0.376166666667     0.844100000000     0.423900000000     0.065      
C        C      0.582726666667     0.911766666667     0.543480000000     0.065      
C        C      0.584870000000     0.886733333333     0.500710000000     0.065      
C        C      0.543150000000     0.871733333333     0.971150000000     0.065      
C        C      0.501536666667     0.881700000000     0.986610000000     0.065      
C        C      0.503063333333     0.906866666667     0.530190000000     0.065      
C        C      0.543933333333     0.844500000000     0.923900000000     0.065      
C        C      0.599770000000     0.840333333333     0.773610000000     0.065      
C        C      0.571620000000     0.864666666667     0.729860000000     0.065      
C        C      0.520783333333     0.880133333333     0.718950000000     0.065      
C        C      0.498713333333     0.869433333333     0.751640000000     0.065      
C        C      0.529796666667     0.844466666667     0.794490000000     0.065      
C        C      0.488400000000     0.908700000000     0.673000000000     0.065      
C        C      0.517750000000     0.709500000000     0.687150000000     0.065      
C        C      0.517570000000     0.735400000000     0.729610000000     0.065      
C        C      0.540796666667     0.717300000000     0.778090000000     0.065      
C        C      0.563763333333     0.674000000000     0.782090000000     0.065      
C        C      0.561603333333     0.982966666667     0.738710000000     0.065      
C        C      0.539866666667     0.744433333333     0.825300000000     0.065      
C        C      0.342093333333     0.772633333333     0.989580000000     0.065      
C        C      0.369663333333     0.748266666667     0.533790000000     0.065      
C        C      0.395200000000     0.705400000000     0.530000000000     0.065      
C        C      0.390523333333     0.688833333333     0.980770000000     0.065      
C        C      0.360226666667     0.714800000000     0.938680000000     0.065      
C        C      0.426900000000     0.677433333333     0.576100000000     0.065      
C        C      0.553740000000     0.745100000000     0.956520000000     0.065      
C        C      0.584396666667     0.720066666667     0.999290000000     0.065      
C        C      0.562383333333     0.705066666667     0.528850000000     0.065      
C        C      0.510463333333     0.715033333333     0.513390000000     0.065      
C        C      0.482936666667     0.740200000000     0.969810000000     0.065      
C        C      0.594666666667     0.677833333333     0.576100000000     0.065      
C        C      0.417363333333     0.673666666667     0.726390000000     0.065      
C        C      0.418380000000     0.698000000000     0.770140000000     0.065      
C        C      0.374816666667     0.713466666667     0.781050000000     0.065      
C        C      0.664286666667     0.702766666667     0.748360000000     0.065      
C        C      0.333470000000     0.677800000000     0.705510000000     0.065      
C        C      0.373066666667     0.742033333333     0.827000000000     0.065      
C        C      0.392983333333     0.876166666667     0.812850000000     0.065      
C        C      0.364496666667     0.902066666667     0.770390000000     0.065      
C        C      0.355403333333     0.883966666667     0.721910000000     0.065      
C        C      0.375703333333     0.840666666667     0.717910000000     0.065      
C        C      0.402463333333     0.816300000000     0.761290000000     0.065      
C        C      0.656333333333     0.911100000000     0.674700000000     0.065      
C        C      0.349040000000     0.939300000000     0.510420000000     0.065      
C        C      0.347136666667     0.914933333333     0.966210000000     0.065      
C        C      0.375200000000     0.872066666667     0.970000000000     0.065      
C        C      0.403343333333     0.855500000000     0.519230000000     0.065      
C        C      0.401106666667     0.881466666667     0.561320000000     0.065      
C        C      0.376166666667     0.844100000000     0.923900000000     0.065      
C        C      0.916060000000     0.245100000000     0.043480000000     0.065      
C        C      0.918203333333     0.220066666667     0.000710000000     0.065      
C        C      0.876483333333     0.205066666667     0.471150000000     0.065      
C        C      0.834870000000     0.215033333333     0.486610000000     0.065      
C        C      0.836396666667     0.240200000000     0.030190000000     0.065      
C        C      0.877266666667     0.177833333333     0.423900000000     0.065      
C        C      0.933103333333     0.173666666667     0.273610000000     0.065      
C        C      0.904953333333     0.198000000000     0.229860000000     0.065      
C        C      0.854116666667     0.213466666667     0.218950000000     0.065      
C        C      0.832046666667     0.202766666667     0.251640000000     0.065      
C        C      0.863130000000     0.177800000000     0.294490000000     0.065      
C        C      0.821733333333     0.242033333333     0.173000000000     0.065      
C        C      0.851083333333     0.042833333333     0.187150000000     0.065      
C        C      0.850903333333     0.068733333333     0.229610000000     0.065      
C        C      0.874130000000     0.050633333333     0.278090000000     0.065      
C        C      0.897096666667     0.007333333333     0.282090000000     0.065      
C        C      0.894936666667     0.316300000000     0.238710000000     0.065      
C        C      0.873200000000     0.077766666667     0.325300000000     0.065      
C        C      0.675426666667     0.105966666667     0.489580000000     0.065      
C        C      0.702996666667     0.081600000000     0.033790000000     0.065      
C        C      0.728533333333     0.038733333333     0.030000000000     0.065      
C        C      0.723856666667     0.022166666667     0.480770000000     0.065      
C        C      0.693560000000     0.048133333333     0.438680000000     0.065      
C        C      0.760233333333     0.010766666667     0.076100000000     0.065      
C        C      0.887073333333     0.078433333333     0.456520000000     0.065      
C        C      0.917730000000     0.053400000000     0.499290000000     0.065      
C        C      0.895716666667     0.038400000000     0.028850000000     0.065      
C        C      0.843796666667     0.048366666667     0.013390000000     0.065      
C        C      0.816270000000     0.073533333333     0.469810000000     0.065      
C        C      0.928000000000     0.011166666667     0.076100000000     0.065      
C        C      0.750696666667     0.007000000000     0.226390000000     0.065      
C        C      0.751713333333     0.031333333333     0.270140000000     0.065      
C        C      0.708150000000     0.046800000000     0.281050000000     0.065      
C        C      0.997620000000     0.036100000000     0.248360000000     0.065      
C        C      0.666803333333     0.011133333333     0.205510000000     0.065      
C        C      0.706400000000     0.075366666667     0.327000000000     0.065      
C        C      0.726316666667     0.209500000000     0.312850000000     0.065      
C        C      0.697830000000     0.235400000000     0.270390000000     0.065      
C        C      0.688736666667     0.217300000000     0.221910000000     0.065      
C        C      0.709036666667     0.174000000000     0.217910000000     0.065      
C        C      0.735796666667     0.149633333333     0.261290000000     0.065      
C        C      0.989666666667     0.244433333333     0.174700000000     0.065      
C        C      0.682373333333     0.272633333333     0.010420000000     0.065      
C        C      0.680470000000     0.248266666667     0.466210000000     0.065      
C        C      0.708533333333     0.205400000000     0.470000000000     0.065      
C        C      0.736676666667     0.188833333333     0.019230000000     0.065      
C        C      0.734440000000     0.214800000000     0.061320000000     0.065      
C        C      0.709500000000     0.177433333333     0.423900000000     0.065      
C        C      0.916060000000     0.245100000000     0.543480000000     0.065      
C        C      0.918203333333     0.220066666667     0.500710000000     0.065      
C        C      0.876483333333     0.205066666667     0.971150000000     0.065      
C        C      0.834870000000     0.215033333333     0.986610000000     0.065      
C        C      0.836396666667     0.240200000000     0.530190000000     0.065      
C        C      0.877266666667     0.177833333333     0.923900000000     0.065      
C        C      0.933103333333     0.173666666667     0.773610000000     0.065      
C        C      0.904953333333     0.198000000000     0.729860000000     0.065      
C        C      0.854116666667     0.213466666667     0.718950000000     0.065      
C        C      0.832046666667     0.202766666667     0.751640000000     0.065      
C        C      0.863130000000     0.177800000000     0.794490000000     0.065      
C        C      0.821733333333     0.242033333333     0.673000000000     0.065      
C        C      0.851083333333     0.042833333333     0.687150000000     0.065      
C        C      0.850903333333     0.068733333333     0.729610000000     0.065      
C        C      0.874130000000     0.050633333333     0.778090000000     0.065      
C        C      0.897096666667     0.007333333333     0.782090000000     0.065      
C        C      0.894936666667     0.316300000000     0.738710000000     0.065      
C        C      0.873200000000     0.077766666667     0.825300000000     0.065      
C        C      0.675426666667     0.105966666667     0.989580000000     0.065      
C        C      0.702996666667     0.081600000000     0.533790000000     0.065      
C        C      0.728533333333     0.038733333333     0.530000000000     0.065      
C        C      0.723856666667     0.022166666667     0.980770000000     0.065      
C        C      0.693560000000     0.048133333333     0.938680000000     0.065      
C        C      0.760233333333     0.010766666667     0.576100000000     0.065      
C        C      0.887073333333     0.078433333333     0.956520000000     0.065      
C        C      0.917730000000     0.053400000000     0.999290000000     0.065      
C        C      0.895716666667     0.038400000000     0.528850000000     0.065      
C        C      0.843796666667     0.048366666667     0.513390000000     0.065      
C        C      0.816270000000     0.073533333333     0.969810000000     0.065      
C        C      0.928000000000     0.011166666667     0.576100000000     0.065      
C        C      0.750696666667     0.007000000000     0.726390000000     0.065      
C        C      0.751713333333     0.031333333333     0.770140000000     0.065      
C        C      0.708150000000     0.046800000000     0.781050000000     0.065      
C        C      0.997620000000     0.036100000000     0.748360000000     0.065      
C        C      0.666803333333     0.011133333333     0.705510000000     0.065      
C        C      0.706400000000     0.075366666667     0.827000000000     0.065      
C        C      0.726316666667     0.209500000000     0.812850000000     0.065      
C        C      0.697830000000     0.235400000000     0.770390000000     0.065      
C        C      0.688736666667     0.217300000000     0.721910000000     0.065      
C        C      0.709036666667     0.174000000000     0.717910000000     0.065      
C        C      0.735796666667     0.149633333333     0.761290000000     0.065      
C        C      0.989666666667     0.244433333333     0.674700000000     0.065      
C        C      0.682373333333     0.272633333333     0.510420000000     0.065      
C        C      0.680470000000     0.248266666667     0.966210000000     0.065      
C        C      0.708533333333     0.205400000000     0.970000000000     0.065      
C        C      0.736676666667     0.188833333333     0.519230000000     0.065      
C        C      0.734440000000     0.214800000000     0.561320000000     0.065      
C        C      0.709500000000     0.177433333333     0.923900000000     0.065      
C        C      0.916060000000     0.578433333333     0.043480000000     0.065      
C        C      0.918203333333     0.553400000000     0.000710000000     0.065      
C        C      0.876483333333     0.538400000000     0.471150000000     0.065      
C        C      0.834870000000     0.548366666667     0.486610000000     0.065      
C        C      0.836396666667     0.573533333333     0.030190000000     0.065      
C        C      0.877266666667     0.511166666667     0.423900000000     0.065      
C        C      0.933103333333     0.507000000000     0.273610000000     0.065      
C        C      0.904953333333     0.531333333333     0.229860000000     0.065      
C        C      0.854116666667     0.546800000000     0.218950000000     0.065      
C        C      0.832046666667     0.536100000000     0.251640000000     0.065      
C        C      0.863130000000     0.511133333333     0.294490000000     0.065      
C        C      0.821733333333     0.575366666667     0.173000000000     0.065      
C        C      0.851083333333     0.376166666667     0.187150000000     0.065      
C        C      0.850903333333     0.402066666667     0.229610000000     0.065      
C        C      0.874130000000     0.383966666667     0.278090000000     0.065      
C        C      0.897096666667     0.340666666667     0.282090000000     0.065      
C        C      0.894936666667     0.649633333333     0.238710000000     0.065      
C        C      0.873200000000     0.411100000000     0.325300000000     0.065      
C        C      0.675426666667     0.439300000000     0.489580000000     0.065      
C        C      0.702996666667     0.414933333333     0.033790000000     0.065      
C        C      0.728533333333     0.372066666667     0.030000000000     0.065      
C        C      0.723856666667     0.355500000000     0.480770000000     0.065      
C        C      0.693560000000     0.381466666667     0.438680000000     0.065      
C        C      0.760233333333     0.344100000000     0.076100000000     0.065      
C        C      0.887073333333     0.411766666667     0.456520000000     0.065      
C        C      0.917730000000     0.386733333333     0.499290000000     0.065      
C        C      0.895716666667     0.371733333333     0.028850000000     0.065      
C        C      0.843796666667     0.381700000000     0.013390000000     0.065      
C        C      0.816270000000     0.406866666667     0.469810000000     0.065      
C        C      0.928000000000     0.344500000000     0.076100000000     0.065      
C        C      0.750696666667     0.340333333333     0.226390000000     0.065      
C        C      0.751713333333     0.364666666667     0.270140000000     0.065      
C        C      0.708150000000     0.380133333333     0.281050000000     0.065      
C        C      0.997620000000     0.369433333333     0.248360000000     0.065      
C        C      0.666803333333     0.344466666667     0.205510000000     0.065      
C        C      0.706400000000     0.408700000000     0.327000000000     0.065      
C        C      0.726316666667     0.542833333333     0.312850000000     0.065      
C        C      0.697830000000     0.568733333333     0.270390000000     0.065      
C        C      0.688736666667     0.550633333333     0.221910000000     0.065      
C        C      0.709036666667     0.507333333333     0.217910000000     0.065      
C        C      0.735796666667     0.482966666667     0.261290000000     0.065      
C        C      0.989666666667     0.577766666667     0.174700000000     0.065      
C        C      0.682373333333     0.605966666667     0.010420000000     0.065      
C        C      0.680470000000     0.581600000000     0.466210000000     0.065      
C        C      0.708533333333     0.538733333333     0.470000000000     0.065      
C        C      0.736676666667     0.522166666667     0.019230000000     0.065      
C        C      0.734440000000     0.548133333333     0.061320000000     0.065      
C        C      0.709500000000     0.510766666667     0.423900000000     0.065      
C        C      0.916060000000     0.578433333333     0.543480000000     0.065      
C        C      0.918203333333     0.553400000000     0.500710000000     0.065      
C        C      0.876483333333     0.538400000000     0.971150000000     0.065      
C        C      0.834870000000     0.548366666667     0.986610000000     0.065      
C        C      0.836396666667     0.573533333333     0.530190000000     0.065      
C        C      0.877266666667     0.511166666667     0.923900000000     0.065      
C        C      0.933103333333     0.507000000000     0.773610000000     0.065      
C        C      0.904953333333     0.531333333333     0.729860000000     0.065      
C        C      0.854116666667     0.546800000000     0.718950000000     0.065      
C        C      0.832046666667     0.536100000000     0.751640000000     0.065      
C        C      0.863130000000     0.511133333333     0.794490000000     0.065      
C        C      0.821733333333     0.575366666667     0.673000000000     0.065      
C        C      0.851083333333     0.376166666667     0.687150000000     0.065      
C        C      0.850903333333     0.402066666667     0.729610000000     0.065      
C        C      0.874130000000     0.383966666667     0.778090000000     0.065      
C        C      0.897096666667     0.340666666667     0.782090000000     0.065      
C        C      0.894936666667     0.649633333333     0.738710000000     0.065      
C        C      0.873200000000     0.411100000000     0.825300000000     0.065      
C        C      0.675426666667     0.439300000000     0.989580000000     0.065      
C        C      0.702996666667     0.414933333333     0.533790000000     0.065      
C        C      0.728533333333     0.372066666667     0.530000000000     0.065      
C        C      0.723856666667     0.355500000000     0.980770000000     0.065      
C        C      0.693560000000     0.381466666667     0.938680000000     0.065      
C        C      0.760233333333     0.344100000000     0.576100000000     0.065      
C        C      0.887073333333     0.411766666667     0.956520000000     0.065      
C        C      0.917730000000     0.386733333333     0.999290000000     0.065      
C        C      0.895716666667     0.371733333333     0.528850000000     0.065      
C        C      0.843796666667     0.381700000000     0.513390000000     0.065      
C        C      0.816270000000     0.406866666667     0.969810000000     0.065      
C        C      0.928000000000     0.344500000000     0.576100000000     0.065      
C        C      0.750696666667     0.340333333333     0.726390000000     0.065      
C        C      0.751713333333     0.364666666667     0.770140000000     0.065      
C        C      0.708150000000     0.380133333333     0.781050000000     0.065      
C        C      0.997620000000     0.369433333333     0.748360000000     0.065      
C        C      0.666803333333     0.344466666667     0.705510000000     0.065      
C        C      0.706400000000     0.408700000000     0.827000000000     0.065      
C        C      0.726316666667     0.542833333333     0.812850000000     0.065      
C        C      0.697830000000     0.568733333333     0.770390000000     0.065      
C        C      0.688736666667     0.550633333333     0.721910000000     0.065      
C        C      0.709036666667     0.507333333333     0.717910000000     0.065      
C        C      0.735796666667     0.482966666667     0.761290000000     0.065      
C        C      0.989666666667     0.577766666667     0.674700000000     0.065      
C        C      0.682373333333     0.605966666667     0.510420000000     0.065      
C        C      0.680470000000     0.581600000000     0.966210000000     0.065      
C        C      0.708533333333     0.538733333333     0.970000000000     0.065      
C        C      0.736676666667     0.522166666667     0.519230000000     0.065      
C        C      0.734440000000     0.548133333333     0.561320000000     0.065      
C        C      0.709500000000     0.510766666667     0.923900000000     0.065      
C        C      0.916060000000     0.911766666667     0.043480000000     0.065      
C        C      0.918203333333     0.886733333333     0.000710000000     0.065      
C        C      0.876483333333     0.871733333333     0.471150000000     0.065      
C        C      0.834870000000     0.881700000000     0.486610000000     0.065      
C        C      0.836396666667     0.906866666667     0.030190000000     0.065      
C        C      0.877266666667     0.844500000000     0.423900000000     0.065      
C        C      0.933103333333     0.840333333333     0.273610000000     0.065      
C        C      0.904953333333     0.864666666667     0.229860000000     0.065      
C        C      0.854116666667     0.880133333333     0.218950000000     0.065      
C        C      0.832046666667     0.869433333333     0.251640000000     0.065      
C        C      0.863130000000     0.844466666667     0.294490000000     0.065      
C        C      0.821733333333     0.908700000000     0.173000000000     0.065      
C        C      0.851083333333     0.709500000000     0.187150000000     0.065      
C        C      0.850903333333     0.735400000000     0.229610000000     0.065      
C        C      0.874130000000     0.717300000000     0.278090000000     0.065      
C        C      0.897096666667     0.674000000000     0.282090000000     0.065      
C        C      0.894936666667     0.982966666667     0.238710000000     0.065      
C        C      0.873200000000     0.744433333333     0.325300000000     0.065      
C        C      0.675426666667     0.772633333333     0.489580000000     0.065      
C        C      0.702996666667     0.748266666667     0.033790000000     0.065      
C        C      0.728533333333     0.705400000000     0.030000000000     0.065      
C        C      0.723856666667     0.688833333333     0.480770000000     0.065      
C        C      0.693560000000     0.714800000000     0.438680000000     0.065      
C        C      0.760233333333     0.677433333333     0.076100000000     0.065      
C        C      0.887073333333     0.745100000000     0.456520000000     0.065      
C        C      0.917730000000     0.720066666667     0.499290000000     0.065      
C        C      0.895716666667     0.705066666667     0.028850000000     0.065      
C        C      0.843796666667     0.715033333333     0.013390000000     0.065      
C        C      0.816270000000     0.740200000000     0.469810000000     0.065      
C        C      0.928000000000     0.677833333333     0.076100000000     0.065      
C        C      0.750696666667     0.673666666667     0.226390000000     0.065      
C        C      0.751713333333     0.698000000000     0.270140000000     0.065      
C        C      0.708150000000     0.713466666667     0.281050000000     0.065      
C        C      0.997620000000     0.702766666667     0.248360000000     0.065      
C        C      0.666803333333     0.677800000000     0.205510000000     0.065      
C        C      0.706400000000     0.742033333333     0.327000000000     0.065      
C        C      0.726316666667     0.876166666667     0.312850000000     0.065      
C        C      0.697830000000     0.902066666667     0.270390000000     0.065      
C        C      0.688736666667     0.883966666667     0.221910000000     0.065      
C        C      0.709036666667     0.840666666667     0.217910000000     0.065      
C        C      0.735796666667     0.816300000000     0.261290000000     0.065      
C        C      0.989666666667     0.911100000000     0.174700000000     0.065      
C        C      0.682373333333     0.939300000000     0.010420000000     0.065      
C        C      0.680470000000     0.914933333333     0.466210000000     0.065      
C        C      0.708533333333     0.872066666667     0.470000000000     0.065      
C        C      0.736676666667     0.855500000000     0.019230000000     0.065      
C        C      0.734440000000     0.881466666667     0.061320000000     0.065      
C        C      0.709500000000     0.844100000000     0.423900000000     0.065      
C        C      0.916060000000     0.911766666667     0.543480000000     0.065      
C        C      0.918203333333     0.886733333333     0.500710000000     0.065      
C        C      0.876483333333     0.871733333333     0.971150000000     0.065      
C        C      0.834870000000     0.881700000000     0.986610000000     0.065      
C        C      0.836396666667     0.906866666667     0.530190000000     0.065      
C        C      0.877266666667     0.844500000000     0.923900000000     0.065      
C        C      0.933103333333     0.840333333333     0.773610000000     0.065      
C        C      0.904953333333     0.864666666667     0.729860000000     0.065      
C        C      0.854116666667     0.880133333333     0.718950000000     0.065      
C        C      0.832046666667     0.869433333333     0.751640000000     0.065      
C        C      0.863130000000     0.844466666667     0.794490000000     0.065      
C        C      0.821733333333     0.908700000000     0.673000000000     0.065      
C        C      0.851083333333     0.709500000000     0.687150000000     0.065      
C        C      0.850903333333     0.735400000000     0.729610000000     0.065      
C        C      0.874130000000     0.717300000000     0.778090000000     0.065      
C        C      0.897096666667     0.674000000000     0.782090000000     0.065      
C        C      0.894936666667     0.982966666667     0.738710000000     0.065      
C        C      0.873200000000     0.744433333333     0.825300000000     0.065      
C        C      0.675426666667     0.772633333333     0.989580000000     0.065      
C        C      0.702996666667     0.748266666667     0.533790000000     0.065      
C        C      0.728533333333     0.705400000000     0.530000000000     0.065      
C        C      0.723856666667     0.688833333333     0.980770000000     0.065      
C        C      0.693560000000     0.714800000000     0.938680000000     0.065      
C        C      0.760233333333     0.677433333333     0.576100000000     0.065      
C        C      0.887073333333     0.745100000000     0.956520000000     0.065      
C        C      0.917730000000     0.720066666667     0.999290000000     0.065      
C        C      0.895716666667     0.705066666667     0.528850000000     0.065      
C        C      0.843796666667     0.715033333333     0.513390000000     0.065      
C        C      0.816270000000     0.740200000000     0.969810000000     0.065      
C        C      0.928000000000     0.677833333333     0.576100000000     0.065      
C        C      0.750696666667     0.673666666667     0.726390000000     0.065      
C        C      0.751713333333     0.698000000000     0.770140000000     0.065      
C        C      0.708150000000     0.713466666667     0.781050000000     0.065      
C        C      0.997620000000     0.702766666667     0.748360000000     0.065      
C        C      0.666803333333     0.677800000000     0.705510000000     0.065      
C        C      0.706400000000     0.742033333333     0.827000000000     0.065      
C        C      0.726316666667     0.876166666667     0.812850000000     0.065      
C        C      0.697830000000     0.902066666667     0.770390000000     0.065      
C        C      0.688736666667     0.883966666667     0.721910000000     0.065      
C        C      0.709036666667     0.840666666667     0.717910000000     0.065      
C        C      0.735796666667     0.816300000000     0.761290000000     0.065      
C        C      0.989666666667     0.911100000000     0.674700000000     0.065      
C        C      0.682373333333     0.939300000000     0.510420000000     0.065      
C        C      0.680470000000     0.914933333333     0.966210000000     0.065      
C        C      0.708533333333     0.872066666667     0.970000000000     0.065      
C        C      0.736676666667     0.855500000000     0.519230000000     0.065      
C        C      0.734440000000     0.881466666667     0.561320000000     0.065      
C        C      0.709500000000     0.844100000000     0.923900000000     0.065      
N        N      0.209813333333     0.254900000000     0.058540000000     0.064      
N        N      0.246123333333     0.163766666667     0.305870000000     0.064      
N        N      0.206303333333     0.333100000000     0.191110000000     0.064      
N        N      0.003130000000     0.090166666667     0.442190000000     0.064      
N        N      0.170786666667     0.088233333333     0.441460000000     0.064      
N        N      0.042210000000     0.330433333333     0.194130000000     0.064      
N        N      0.078896666667     0.166433333333     0.308890000000     0.064      
N        N      0.041670000000     0.256833333333     0.057810000000     0.064      
N        N      0.209813333333     0.254900000000     0.558540000000     0.064      
N        N      0.246123333333     0.163766666667     0.805870000000     0.064      
N        N      0.206303333333     0.333100000000     0.691110000000     0.064      
N        N      0.003130000000     0.090166666667     0.942190000000     0.064      
N        N      0.170786666667     0.088233333333     0.941460000000     0.064      
N        N      0.042210000000     0.330433333333     0.694130000000     0.064      
N        N      0.078896666667     0.166433333333     0.808890000000     0.064      
N        N      0.041670000000     0.256833333333     0.557810000000     0.064      
N        N      0.209813333333     0.588233333333     0.058540000000     0.064      
N        N      0.246123333333     0.497100000000     0.305870000000     0.064      
N        N      0.206303333333     0.666433333333     0.191110000000     0.064      
N        N      0.003130000000     0.423500000000     0.442190000000     0.064      
N        N      0.170786666667     0.421566666667     0.441460000000     0.064      
N        N      0.042210000000     0.663766666667     0.194130000000     0.064      
N        N      0.078896666667     0.499766666667     0.308890000000     0.064      
N        N      0.041670000000     0.590166666667     0.057810000000     0.064      
N        N      0.209813333333     0.588233333333     0.558540000000     0.064      
N        N      0.246123333333     0.497100000000     0.805870000000     0.064      
N        N      0.206303333333     0.666433333333     0.691110000000     0.064      
N        N      0.003130000000     0.423500000000     0.942190000000     0.064      
N        N      0.170786666667     0.421566666667     0.941460000000     0.064      
N        N      0.042210000000     0.663766666667     0.694130000000     0.064      
N        N      0.078896666667     0.499766666667     0.808890000000     0.064      
N        N      0.041670000000     0.590166666667     0.557810000000     0.064      
N        N      0.209813333333     0.921566666667     0.058540000000     0.064      
N        N      0.246123333333     0.830433333333     0.305870000000     0.064      
N        N      0.206303333333     0.999766666667     0.191110000000     0.064      
N        N      0.003130000000     0.756833333333     0.442190000000     0.064      
N        N      0.170786666667     0.754900000000     0.441460000000     0.064      
N        N      0.042210000000     0.997100000000     0.194130000000     0.064      
N        N      0.078896666667     0.833100000000     0.308890000000     0.064      
N        N      0.041670000000     0.923500000000     0.057810000000     0.064      
N        N      0.209813333333     0.921566666667     0.558540000000     0.064      
N        N      0.246123333333     0.830433333333     0.805870000000     0.064      
N        N      0.206303333333     0.999766666667     0.691110000000     0.064      
N        N      0.003130000000     0.756833333333     0.942190000000     0.064      
N        N      0.170786666667     0.754900000000     0.941460000000     0.064      
N        N      0.042210000000     0.997100000000     0.694130000000     0.064      
N        N      0.078896666667     0.833100000000     0.808890000000     0.064      
N        N      0.041670000000     0.923500000000     0.557810000000     0.064      
N        N      0.543146666667     0.254900000000     0.058540000000     0.064      
N        N      0.579456666667     0.163766666667     0.305870000000     0.064      
N        N      0.539636666667     0.333100000000     0.191110000000     0.064      
N        N      0.336463333333     0.090166666667     0.442190000000     0.064      
N        N      0.504120000000     0.088233333333     0.441460000000     0.064      
N        N      0.375543333333     0.330433333333     0.194130000000     0.064      
N        N      0.412230000000     0.166433333333     0.308890000000     0.064      
N        N      0.375003333333     0.256833333333     0.057810000000     0.064      
N        N      0.543146666667     0.254900000000     0.558540000000     0.064      
N        N      0.579456666667     0.163766666667     0.805870000000     0.064      
N        N      0.539636666667     0.333100000000     0.691110000000     0.064      
N        N      0.336463333333     0.090166666667     0.942190000000     0.064      
N        N      0.504120000000     0.088233333333     0.941460000000     0.064      
N        N      0.375543333333     0.330433333333     0.694130000000     0.064      
N        N      0.412230000000     0.166433333333     0.808890000000     0.064      
N        N      0.375003333333     0.256833333333     0.557810000000     0.064      
N        N      0.543146666667     0.588233333333     0.058540000000     0.064      
N        N      0.579456666667     0.497100000000     0.305870000000     0.064      
N        N      0.539636666667     0.666433333333     0.191110000000     0.064      
N        N      0.336463333333     0.423500000000     0.442190000000     0.064      
N        N      0.504120000000     0.421566666667     0.441460000000     0.064      
N        N      0.375543333333     0.663766666667     0.194130000000     0.064      
N        N      0.412230000000     0.499766666667     0.308890000000     0.064      
N        N      0.375003333333     0.590166666667     0.057810000000     0.064      
N        N      0.543146666667     0.588233333333     0.558540000000     0.064      
N        N      0.579456666667     0.497100000000     0.805870000000     0.064      
N        N      0.539636666667     0.666433333333     0.691110000000     0.064      
N        N      0.336463333333     0.423500000000     0.942190000000     0.064      
N        N      0.504120000000     0.421566666667     0.941460000000     0.064      
N        N      0.375543333333     0.663766666667     0.694130000000     0.064      
N        N      0.412230000000     0.499766666667     0.808890000000     0.064      
N        N      0.375003333333     0.590166666667     0.557810000000     0.064      
N        N      0.543146666667     0.921566666667     0.058540000000     0.064      
N        N      0.579456666667     0.830433333333     0.305870000000     0.064      
N        N      0.539636666667     0.999766666667     0.191110000000     0.064      
N        N      0.336463333333     0.756833333333     0.442190000000     0.064      
N        N      0.504120000000     0.754900000000     0.441460000000     0.064      
N        N      0.375543333333     0.997100000000     0.194130000000     0.064      
N        N      0.412230000000     0.833100000000     0.308890000000     0.064      
N        N      0.375003333333     0.923500000000     0.057810000000     0.064      
N        N      0.543146666667     0.921566666667     0.558540000000     0.064      
N        N      0.579456666667     0.830433333333     0.805870000000     0.064      
N        N      0.539636666667     0.999766666667     0.691110000000     0.064      
N        N      0.336463333333     0.756833333333     0.942190000000     0.064      
N        N      0.504120000000     0.754900000000     0.941460000000     0.064      
N        N      0.375543333333     0.997100000000     0.694130000000     0.064      
N        N      0.412230000000     0.833100000000     0.808890000000     0.064      
N        N      0.375003333333     0.923500000000     0.557810000000     0.064      
N        N      0.876480000000     0.254900000000     0.058540000000     0.064      
N        N      0.912790000000     0.163766666667     0.305870000000     0.064      
N        N      0.872970000000     0.333100000000     0.191110000000     0.064      
N        N      0.669796666667     0.090166666667     0.442190000000     0.064      
N        N      0.837453333333     0.088233333333     0.441460000000     0.064      
N        N      0.708876666667     0.330433333333     0.194130000000     0.064      
N        N      0.745563333333     0.166433333333     0.308890000000     0.064      
N        N      0.708336666667     0.256833333333     0.057810000000     0.064      
N        N      0.876480000000     0.254900000000     0.558540000000     0.064      
N        N      0.912790000000     0.163766666667     0.805870000000     0.064      
N        N      0.872970000000     0.333100000000     0.691110000000     0.064      
N        N      0.669796666667     0.090166666667     0.942190000000     0.064      
N        N      0.837453333333     0.088233333333     0.941460000000     0.064      
N        N      0.708876666667     0.330433333333     0.694130000000     0.064      
N        N      0.745563333333     0.166433333333     0.808890000000     0.064      
N        N      0.708336666667     0.256833333333     0.557810000000     0.064      
N        N      0.876480000000     0.588233333333     0.058540000000     0.064      
N        N      0.912790000000     0.497100000000     0.305870000000     0.064      
N        N      0.872970000000     0.666433333333     0.191110000000     0.064      
N        N      0.669796666667     0.423500000000     0.442190000000     0.064      
N        N      0.837453333333     0.421566666667     0.441460000000     0.064      
N        N      0.708876666667     0.663766666667     0.194130000000     0.064      
N        N      0.745563333333     0.499766666667     0.308890000000     0.064      
N        N      0.708336666667     0.590166666667     0.057810000000     0.064      
N        N      0.876480000000     0.588233333333     0.558540000000     0.064      
N        N      0.912790000000     0.497100000000     0.805870000000     0.064      
N        N      0.872970000000     0.666433333333     0.691110000000     0.064      
N        N      0.669796666667     0.423500000000     0.942190000000     0.064      
N        N      0.837453333333     0.421566666667     0.941460000000     0.064      
N        N      0.708876666667     0.663766666667     0.694130000000     0.064      
N        N      0.745563333333     0.499766666667     0.808890000000     0.064      
N        N      0.708336666667     0.590166666667     0.557810000000     0.064      
N        N      0.876480000000     0.921566666667     0.058540000000     0.064      
N        N      0.912790000000     0.830433333333     0.305870000000     0.064      
N        N      0.872970000000     0.999766666667     0.191110000000     0.064      
N        N      0.669796666667     0.756833333333     0.442190000000     0.064      
N        N      0.837453333333     0.754900000000     0.441460000000     0.064      
N        N      0.708876666667     0.997100000000     0.194130000000     0.064      
N        N      0.745563333333     0.833100000000     0.308890000000     0.064      
N        N      0.708336666667     0.923500000000     0.057810000000     0.064      
N        N      0.876480000000     0.921566666667     0.558540000000     0.064      
N        N      0.912790000000     0.830433333333     0.805870000000     0.064      
N        N      0.872970000000     0.999766666667     0.691110000000     0.064      
N        N      0.669796666667     0.756833333333     0.942190000000     0.064      
N        N      0.837453333333     0.754900000000     0.941460000000     0.064      
N        N      0.708876666667     0.997100000000     0.694130000000     0.064      
N        N      0.745563333333     0.833100000000     0.808890000000     0.064      
N        N      0.708336666667     0.923500000000     0.557810000000     0.064      
O        O      0.251413333333     0.167733333333     0.415940000000     0.019      
O        O      0.169700000000     0.169600000000     0.396600000000     0.019      
O        O      0.174943333333     0.249800000000     0.142930000000     0.019      
O        O      0.109523333333     0.255733333333     0.168370000000     0.019      
O        O      0.246436666667     0.083733333333     0.357110000000     0.019      
O        O      0.163486666667     0.091000000000     0.329060000000     0.019      
O        O      0.073130000000     0.007433333333     0.107890000000     0.019      
O        O      0.137480000000     0.328466666667     0.078240000000     0.019      
O        O      0.307453333333     0.001066666667     0.084060000000     0.019      
O        O      0.238633333333     0.002933333333     0.103400000000     0.019      
O        O      0.079656666667     0.083133333333     0.357070000000     0.019      
O        O      0.330610000000     0.089066666667     0.331630000000     0.019      
O        O      0.008363333333     0.250400000000     0.142890000000     0.019      
O        O      0.277446666667     0.257666666667     0.170940000000     0.019      
O        O      0.001203333333     0.174100000000     0.392110000000     0.019      
O        O      0.085320000000     0.161800000000     0.421760000000     0.019      
O        O      0.251413333333     0.167733333333     0.915940000000     0.019      
O        O      0.169700000000     0.169600000000     0.896600000000     0.019      
O        O      0.174943333333     0.249800000000     0.642930000000     0.019      
O        O      0.109523333333     0.255733333333     0.668370000000     0.019      
O        O      0.246436666667     0.083733333333     0.857110000000     0.019      
O        O      0.163486666667     0.091000000000     0.829060000000     0.019      
O        O      0.073130000000     0.007433333333     0.607890000000     0.019      
O        O      0.137480000000     0.328466666667     0.578240000000     0.019      
O        O      0.307453333333     0.001066666667     0.584060000000     0.019      
O        O      0.238633333333     0.002933333333     0.603400000000     0.019      
O        O      0.079656666667     0.083133333333     0.857070000000     0.019      
O        O      0.330610000000     0.089066666667     0.831630000000     0.019      
O        O      0.008363333333     0.250400000000     0.642890000000     0.019      
O        O      0.277446666667     0.257666666667     0.670940000000     0.019      
O        O      0.001203333333     0.174100000000     0.892110000000     0.019      
O        O      0.085320000000     0.161800000000     0.921760000000     0.019      
O        O      0.251413333333     0.501066666667     0.415940000000     0.019      
O        O      0.169700000000     0.502933333333     0.396600000000     0.019      
O        O      0.174943333333     0.583133333333     0.142930000000     0.019      
O        O      0.109523333333     0.589066666667     0.168370000000     0.019      
O        O      0.246436666667     0.417066666667     0.357110000000     0.019      
O        O      0.163486666667     0.424333333333     0.329060000000     0.019      
O        O      0.073130000000     0.340766666667     0.107890000000     0.019      
O        O      0.137480000000     0.661800000000     0.078240000000     0.019      
O        O      0.307453333333     0.334400000000     0.084060000000     0.019      
O        O      0.238633333333     0.336266666667     0.103400000000     0.019      
O        O      0.079656666667     0.416466666667     0.357070000000     0.019      
O        O      0.330610000000     0.422400000000     0.331630000000     0.019      
O        O      0.008363333333     0.583733333333     0.142890000000     0.019      
O        O      0.277446666667     0.591000000000     0.170940000000     0.019      
O        O      0.001203333333     0.507433333333     0.392110000000     0.019      
O        O      0.085320000000     0.495133333333     0.421760000000     0.019      
O        O      0.251413333333     0.501066666667     0.915940000000     0.019      
O        O      0.169700000000     0.502933333333     0.896600000000     0.019      
O        O      0.174943333333     0.583133333333     0.642930000000     0.019      
O        O      0.109523333333     0.589066666667     0.668370000000     0.019      
O        O      0.246436666667     0.417066666667     0.857110000000     0.019      
O        O      0.163486666667     0.424333333333     0.829060000000     0.019      
O        O      0.073130000000     0.340766666667     0.607890000000     0.019      
O        O      0.137480000000     0.661800000000     0.578240000000     0.019      
O        O      0.307453333333     0.334400000000     0.584060000000     0.019      
O        O      0.238633333333     0.336266666667     0.603400000000     0.019      
O        O      0.079656666667     0.416466666667     0.857070000000     0.019      
O        O      0.330610000000     0.422400000000     0.831630000000     0.019      
O        O      0.008363333333     0.583733333333     0.642890000000     0.019      
O        O      0.277446666667     0.591000000000     0.670940000000     0.019      
O        O      0.001203333333     0.507433333333     0.892110000000     0.019      
O        O      0.085320000000     0.495133333333     0.921760000000     0.019      
O        O      0.251413333333     0.834400000000     0.415940000000     0.019      
O        O      0.169700000000     0.836266666667     0.396600000000     0.019      
O        O      0.174943333333     0.916466666667     0.142930000000     0.019      
O        O      0.109523333333     0.922400000000     0.168370000000     0.019      
O        O      0.246436666667     0.750400000000     0.357110000000     0.019      
O        O      0.163486666667     0.757666666667     0.329060000000     0.019      
O        O      0.073130000000     0.674100000000     0.107890000000     0.019      
O        O      0.137480000000     0.995133333333     0.078240000000     0.019      
O        O      0.307453333333     0.667733333333     0.084060000000     0.019      
O        O      0.238633333333     0.669600000000     0.103400000000     0.019      
O        O      0.079656666667     0.749800000000     0.357070000000     0.019      
O        O      0.330610000000     0.755733333333     0.331630000000     0.019      
O        O      0.008363333333     0.917066666667     0.142890000000     0.019      
O        O      0.277446666667     0.924333333333     0.170940000000     0.019      
O        O      0.001203333333     0.840766666667     0.392110000000     0.019      
O        O      0.085320000000     0.828466666667     0.421760000000     0.019      
O        O      0.251413333333     0.834400000000     0.915940000000     0.019      
O        O      0.169700000000     0.836266666667     0.896600000000     0.019      
O        O      0.174943333333     0.916466666667     0.642930000000     0.019      
O        O      0.109523333333     0.922400000000     0.668370000000     0.019      
O        O      0.246436666667     0.750400000000     0.857110000000     0.019      
O        O      0.163486666667     0.757666666667     0.829060000000     0.019      
O        O      0.073130000000     0.674100000000     0.607890000000     0.019      
O        O      0.137480000000     0.995133333333     0.578240000000     0.019      
O        O      0.307453333333     0.667733333333     0.584060000000     0.019      
O        O      0.238633333333     0.669600000000     0.603400000000     0.019      
O        O      0.079656666667     0.749800000000     0.857070000000     0.019      
O        O      0.330610000000     0.755733333333     0.831630000000     0.019      
O        O      0.008363333333     0.917066666667     0.642890000000     0.019      
O        O      0.277446666667     0.924333333333     0.670940000000     0.019      
O        O      0.001203333333     0.840766666667     0.892110000000     0.019      
O        O      0.085320000000     0.828466666667     0.921760000000     0.019      
O        O      0.584746666667     0.167733333333     0.415940000000     0.019      
O        O      0.503033333333     0.169600000000     0.396600000000     0.019      
O        O      0.508276666667     0.249800000000     0.142930000000     0.019      
O        O      0.442856666667     0.255733333333     0.168370000000     0.019      
O        O      0.579770000000     0.083733333333     0.357110000000     0.019      
O        O      0.496820000000     0.091000000000     0.329060000000     0.019      
O        O      0.406463333333     0.007433333333     0.107890000000     0.019      
O        O      0.470813333333     0.328466666667     0.078240000000     0.019      
O        O      0.640786666667     0.001066666667     0.084060000000     0.019      
O        O      0.571966666667     0.002933333333     0.103400000000     0.019      
O        O      0.412990000000     0.083133333333     0.357070000000     0.019      
O        O      0.663943333333     0.089066666667     0.331630000000     0.019      
O        O      0.341696666667     0.250400000000     0.142890000000     0.019      
O        O      0.610780000000     0.257666666667     0.170940000000     0.019      
O        O      0.334536666667     0.174100000000     0.392110000000     0.019      
O        O      0.418653333333     0.161800000000     0.421760000000     0.019      
O        O      0.584746666667     0.167733333333     0.915940000000     0.019      
O        O      0.503033333333     0.169600000000     0.896600000000     0.019      
O        O      0.508276666667     0.249800000000     0.642930000000     0.019      
O        O      0.442856666667     0.255733333333     0.668370000000     0.019      
O        O      0.579770000000     0.083733333333     0.857110000000     0.019      
O        O      0.496820000000     0.091000000000     0.829060000000     0.019      
O        O      0.406463333333     0.007433333333     0.607890000000     0.019      
O        O      0.470813333333     0.328466666667     0.578240000000     0.019      
O        O      0.640786666667     0.001066666667     0.584060000000     0.019      
O        O      0.571966666667     0.002933333333     0.603400000000     0.019      
O        O      0.412990000000     0.083133333333     0.857070000000     0.019      
O        O      0.663943333333     0.089066666667     0.831630000000     0.019      
O        O      0.341696666667     0.250400000000     0.642890000000     0.019      
O        O      0.610780000000     0.257666666667     0.670940000000     0.019      
O        O      0.334536666667     0.174100000000     0.892110000000     0.019      
O        O      0.418653333333     0.161800000000     0.921760000000     0.019      
O        O      0.584746666667     0.501066666667     0.415940000000     0.019      
O        O      0.503033333333     0.502933333333     0.396600000000     0.019      
O        O      0.508276666667     0.583133333333     0.142930000000     0.019      
O        O      0.442856666667     0.589066666667     0.168370000000     0.019      
O        O      0.579770000000     0.417066666667     0.357110000000     0.019      
O        O      0.496820000000     0.424333333333     0.329060000000     0.019      
O        O      0.406463333333     0.340766666667     0.107890000000     0.019      
O        O      0.470813333333     0.661800000000     0.078240000000     0.019      
O        O      0.640786666667     0.334400000000     0.084060000000     0.019      
O        O      0.571966666667     0.336266666667     0.103400000000     0.019      
O        O      0.412990000000     0.416466666667     0.357070000000     0.019      
O        O      0.663943333333     0.422400000000     0.331630000000     0.019      
O        O      0.341696666667     0.583733333333     0.142890000000     0.019      
O        O      0.610780000000     0.591000000000     0.170940000000     0.019      
O        O      0.334536666667     0.507433333333     0.392110000000     0.019      
O        O      0.418653333333     0.495133333333     0.421760000000     0.019      
O        O      0.584746666667     0.501066666667     0.915940000000     0.019      
O        O      0.503033333333     0.502933333333     0.896600000000     0.019      
O        O      0.508276666667     0.583133333333     0.642930000000     0.019      
O        O      0.442856666667     0.589066666667     0.668370000000     0.019      
O        O      0.579770000000     0.417066666667     0.857110000000     0.019      
O        O      0.496820000000     0.424333333333     0.829060000000     0.019      
O        O      0.406463333333     0.340766666667     0.607890000000     0.019      
O        O      0.470813333333     0.661800000000     0.578240000000     0.019      
O        O      0.640786666667     0.334400000000     0.584060000000     0.019      
O        O      0.571966666667     0.336266666667     0.603400000000     0.019      
O        O      0.412990000000     0.416466666667     0.857070000000     0.019      
O        O      0.663943333333     0.422400000000     0.831630000000     0.019      
O        O      0.341696666667     0.583733333333     0.642890000000     0.019      
O        O      0.610780000000     0.591000000000     0.670940000000     0.019      
O        O      0.334536666667     0.507433333333     0.892110000000     0.019      
O        O      0.418653333333     0.495133333333     0.921760000000     0.019      
O        O      0.584746666667     0.834400000000     0.415940000000     0.019      
O        O      0.503033333333     0.836266666667     0.396600000000     0.019      
O        O      0.508276666667     0.916466666667     0.142930000000     0.019      
O        O      0.442856666667     0.922400000000     0.168370000000     0.019      
O        O      0.579770000000     0.750400000000     0.357110000000     0.019      
O        O      0.496820000000     0.757666666667     0.329060000000     0.019      
O        O      0.406463333333     0.674100000000     0.107890000000     0.019      
O        O      0.470813333333     0.995133333333     0.078240000000     0.019      
O        O      0.640786666667     0.667733333333     0.084060000000     0.019      
O        O      0.571966666667     0.669600000000     0.103400000000     0.019      
O        O      0.412990000000     0.749800000000     0.357070000000     0.019      
O        O      0.663943333333     0.755733333333     0.331630000000     0.019      
O        O      0.341696666667     0.917066666667     0.142890000000     0.019      
O        O      0.610780000000     0.924333333333     0.170940000000     0.019      
O        O      0.334536666667     0.840766666667     0.392110000000     0.019      
O        O      0.418653333333     0.828466666667     0.421760000000     0.019      
O        O      0.584746666667     0.834400000000     0.915940000000     0.019      
O        O      0.503033333333     0.836266666667     0.896600000000     0.019      
O        O      0.508276666667     0.916466666667     0.642930000000     0.019      
O        O      0.442856666667     0.922400000000     0.668370000000     0.019      
O        O      0.579770000000     0.750400000000     0.857110000000     0.019      
O        O      0.496820000000     0.757666666667     0.829060000000     0.019      
O        O      0.406463333333     0.674100000000     0.607890000000     0.019      
O        O      0.470813333333     0.995133333333     0.578240000000     0.019      
O        O      0.640786666667     0.667733333333     0.584060000000     0.019      
O        O      0.571966666667     0.669600000000     0.603400000000     0.019      
O        O      0.412990000000     0.749800000000     0.857070000000     0.019      
O        O      0.663943333333     0.755733333333     0.831630000000     0.019      
O        O      0.341696666667     0.917066666667     0.642890000000     0.019      
O        O      0.610780000000     0.924333333333     0.670940000000     0.019      
O        O      0.334536666667     0.840766666667     0.892110000000     0.019      
O        O      0.418653333333     0.828466666667     0.921760000000     0.019      
O        O      0.918080000000     0.167733333333     0.415940000000     0.019      
O        O      0.836366666667     0.169600000000     0.396600000000     0.019      
O        O      0.841610000000     0.249800000000     0.142930000000     0.019      
O        O      0.776190000000     0.255733333333     0.168370000000     0.019      
O        O      0.913103333333     0.083733333333     0.357110000000     0.019      
O        O      0.830153333333     0.091000000000     0.329060000000     0.019      
O        O      0.739796666667     0.007433333333     0.107890000000     0.019      
O        O      0.804146666667     0.328466666667     0.078240000000     0.019      
O        O      0.974120000000     0.001066666667     0.084060000000     0.019      
O        O      0.905300000000     0.002933333333     0.103400000000     0.019      
O        O      0.746323333333     0.083133333333     0.357070000000     0.019      
O        O      0.997276666667     0.089066666667     0.331630000000     0.019      
O        O      0.675030000000     0.250400000000     0.142890000000     0.019      
O        O      0.944113333333     0.257666666667     0.170940000000     0.019      
O        O      0.667870000000     0.174100000000     0.392110000000     0.019      
O        O      0.751986666667     0.161800000000     0.421760000000     0.019      
O        O      0.918080000000     0.167733333333     0.915940000000     0.019      
O        O      0.836366666667     0.169600000000     0.896600000000     0.019      
O        O      0.841610000000     0.249800000000     0.642930000000     0.019      
O        O      0.776190000000     0.255733333333     0.668370000000     0.019      
O        O      0.913103333333     0.083733333333     0.857110000000     0.019      
O        O      0.830153333333     0.091000000000     0.829060000000     0.019      
O        O      0.739796666667     0.007433333333     0.607890000000     0.019      
O        O      0.804146666667     0.328466666667     0.578240000000     0.019      
O        O      0.974120000000     0.001066666667     0.584060000000     0.019      
O        O      0.905300000000     0.002933333333     0.603400000000     0.019      
O        O      0.746323333333     0.083133333333     0.857070000000     0.019      
O        O      0.997276666667     0.089066666667     0.831630000000     0.019      
O        O      0.675030000000     0.250400000000     0.642890000000     0.019      
O        O      0.944113333333     0.257666666667     0.670940000000     0.019      
O        O      0.667870000000     0.174100000000     0.892110000000     0.019      
O        O      0.751986666667     0.161800000000     0.921760000000     0.019      
O        O      0.918080000000     0.501066666667     0.415940000000     0.019      
O        O      0.836366666667     0.502933333333     0.396600000000     0.019      
O        O      0.841610000000     0.583133333333     0.142930000000     0.019      
O        O      0.776190000000     0.589066666667     0.168370000000     0.019      
O        O      0.913103333333     0.417066666667     0.357110000000     0.019      
O        O      0.830153333333     0.424333333333     0.329060000000     0.019      
O        O      0.739796666667     0.340766666667     0.107890000000     0.019      
O        O      0.804146666667     0.661800000000     0.078240000000     0.019      
O        O      0.974120000000     0.334400000000     0.084060000000     0.019      
O        O      0.905300000000     0.336266666667     0.103400000000     0.019      
O        O      0.746323333333     0.416466666667     0.357070000000     0.019      
O        O      0.997276666667     0.422400000000     0.331630000000     0.019      
O        O      0.675030000000     0.583733333333     0.142890000000     0.019      
O        O      0.944113333333     0.591000000000     0.170940000000     0.019      
O        O      0.667870000000     0.507433333333     0.392110000000     0.019      
O        O      0.751986666667     0.495133333333     0.421760000000     0.019      
O        O      0.918080000000     0.501066666667     0.915940000000     0.019      
O        O      0.836366666667     0.502933333333     0.896600000000     0.019      
O        O      0.841610000000     0.583133333333     0.642930000000     0.019      
O        O      0.776190000000     0.589066666667     0.668370000000     0.019      
O        O      0.913103333333     0.417066666667     0.857110000000     0.019      
O        O      0.830153333333     0.424333333333     0.829060000000     0.019      
O        O      0.739796666667     0.340766666667     0.607890000000     0.019      
O        O      0.804146666667     0.661800000000     0.578240000000     0.019      
O        O      0.974120000000     0.334400000000     0.584060000000     0.019      
O        O      0.905300000000     0.336266666667     0.603400000000     0.019      
O        O      0.746323333333     0.416466666667     0.857070000000     0.019      
O        O      0.997276666667     0.422400000000     0.831630000000     0.019      
O        O      0.675030000000     0.583733333333     0.642890000000     0.019      
O        O      0.944113333333     0.591000000000     0.670940000000     0.019      
O        O      0.667870000000     0.507433333333     0.892110000000     0.019      
O        O      0.751986666667     0.495133333333     0.921760000000     0.019      
O        O      0.918080000000     0.834400000000     0.415940000000     0.019      
O        O      0.836366666667     0.836266666667     0.396600000000     0.019      
O        O      0.841610000000     0.916466666667     0.142930000000     0.019      
O        O      0.776190000000     0.922400000000     0.168370000000     0.019      
O        O      0.913103333333     0.750400000000     0.357110000000     0.019      
O        O      0.830153333333     0.757666666667     0.329060000000     0.019      
O        O      0.739796666667     0.674100000000     0.107890000000     0.019      
O        O      0.804146666667     0.995133333333     0.078240000000     0.019      
O        O      0.974120000000     0.667733333333     0.084060000000     0.019      
O        O      0.905300000000     0.669600000000     0.103400000000     0.019      
O        O      0.746323333333     0.749800000000     0.357070000000     0.019      
O        O      0.997276666667     0.755733333333     0.331630000000     0.019      
O        O      0.675030000000     0.917066666667     0.142890000000     0.019      
O        O      0.944113333333     0.924333333333     0.170940000000     0.019      
O        O      0.667870000000     0.840766666667     0.392110000000     0.019      
O        O      0.751986666667     0.828466666667     0.421760000000     0.019      
O        O      0.918080000000     0.834400000000     0.915940000000     0.019      
O        O      0.836366666667     0.836266666667     0.896600000000     0.019      
O        O      0.841610000000     0.916466666667     0.642930000000     0.019      
O        O      0.776190000000     0.922400000000     0.668370000000     0.019      
O        O      0.913103333333     0.750400000000     0.857110000000     0.019      
O        O      0.830153333333     0.757666666667     0.829060000000     0.019      
O        O      0.739796666667     0.674100000000     0.607890000000     0.019      
O        O      0.804146666667     0.995133333333     0.578240000000     0.019      
O        O      0.974120000000     0.667733333333     0.584060000000     0.019      
O        O      0.905300000000     0.669600000000     0.603400000000     0.019      
O        O      0.746323333333     0.749800000000     0.857070000000     0.019      
O        O      0.997276666667     0.755733333333     0.831630000000     0.019      
O        O      0.675030000000     0.917066666667     0.642890000000     0.019      
O        O      0.944113333333     0.924333333333     0.670940000000     0.019      
O        O      0.667870000000     0.840766666667     0.892110000000     0.019      
O        O      0.751986666667     0.828466666667     0.921760000000     0.019      


