data_ABEXEN_clean

_audit_creation_method RASPA-1.0
_audit_creation_date 2022-9-14
_audit_author_name 'Xiaoqi Zhang'

_cell_length_a    25.098
_cell_length_b    25.098
_cell_length_c    28.4464
_cell_angle_alpha 90
_cell_angle_beta  90
_cell_angle_gamma 120
_cell_volume      62072.1

_symmetry_cell_setting          triclinic
_symmetry_space_group_name_Hall 'P 1'
_symmetry_space_group_name_H-M  'P 1'
_symmetry_Int_Tables_number     1

_symmetry_equiv_pos_as_xyz 'x,y,z'

loop_
_atom_site_label
_atom_site_type_symbol
_atom_site_fract_x
_atom_site_fract_y
_atom_site_fract_z
_atom_site_charge
O        O      0.348435000000     0.080765000000     0.078910000000     0.052      
O        O      0.318205000000     0.096635000000     0.051360000000     0.052      
O        O      0.419235000000     0.267670000000     0.078910000000     0.052      
O        O      0.403365000000     0.221570000000     0.051360000000     0.052      
O        O      0.232330000000     0.151565000000     0.078910000000     0.052      
O        O      0.278430000000     0.181795000000     0.051360000000     0.052      
O        O      0.151565000000     0.419235000000     0.078910000000     0.052      
O        O      0.181795000000     0.403365000000     0.051360000000     0.052      
O        O      0.080765000000     0.232330000000     0.078910000000     0.052      
O        O      0.096635000000     0.278430000000     0.051360000000     0.052      
O        O      0.267670000000     0.348435000000     0.078910000000     0.052      
O        O      0.221570000000     0.318205000000     0.051360000000     0.052      
O        O      0.080765000000     0.348435000000     0.421090000000     0.052      
O        O      0.096635000000     0.318205000000     0.448640000000     0.052      
O        O      0.267670000000     0.419235000000     0.421090000000     0.052      
O        O      0.221570000000     0.403365000000     0.448640000000     0.052      
O        O      0.151565000000     0.232330000000     0.421090000000     0.052      
O        O      0.181795000000     0.278430000000     0.448640000000     0.052      
O        O      0.419235000000     0.151565000000     0.421090000000     0.052      
O        O      0.403365000000     0.181795000000     0.448640000000     0.052      
O        O      0.232330000000     0.080765000000     0.421090000000     0.052      
O        O      0.278430000000     0.096635000000     0.448640000000     0.052      
O        O      0.348435000000     0.267670000000     0.421090000000     0.052      
O        O      0.318205000000     0.221570000000     0.448640000000     0.052      
O        O      0.151565000000     0.419235000000     0.921090000000     0.052      
O        O      0.181795000000     0.403365000000     0.948640000000     0.052      
O        O      0.080765000000     0.232330000000     0.921090000000     0.052      
O        O      0.096635000000     0.278430000000     0.948640000000     0.052      
O        O      0.267670000000     0.348435000000     0.921090000000     0.052      
O        O      0.221570000000     0.318205000000     0.948640000000     0.052      
O        O      0.348435000000     0.080765000000     0.921090000000     0.052      
O        O      0.318205000000     0.096635000000     0.948640000000     0.052      
O        O      0.419235000000     0.267670000000     0.921090000000     0.052      
O        O      0.403365000000     0.221570000000     0.948640000000     0.052      
O        O      0.232330000000     0.151565000000     0.921090000000     0.052      
O        O      0.278430000000     0.181795000000     0.948640000000     0.052      
O        O      0.419235000000     0.151565000000     0.578910000000     0.052      
O        O      0.403365000000     0.181795000000     0.551360000000     0.052      
O        O      0.232330000000     0.080765000000     0.578910000000     0.052      
O        O      0.278430000000     0.096635000000     0.551360000000     0.052      
O        O      0.348435000000     0.267670000000     0.578910000000     0.052      
O        O      0.318205000000     0.221570000000     0.551360000000     0.052      
O        O      0.080765000000     0.348435000000     0.578910000000     0.052      
O        O      0.096635000000     0.318205000000     0.551360000000     0.052      
O        O      0.267670000000     0.419235000000     0.578910000000     0.052      
O        O      0.221570000000     0.403365000000     0.551360000000     0.052      
O        O      0.151565000000     0.232330000000     0.578910000000     0.052      
O        O      0.181795000000     0.278430000000     0.551360000000     0.052      
O        O      0.034340000000     0.190660000000     0.000000000000     0.052      
O        O      0.396530000000     0.101015000000     0.000000000000     0.052      
O        O      0.036185000000     0.235040000000     0.000000000000     0.052      
O        O      0.378060000000     0.132120000000     0.000000000000     0.052      
O        O      0.309340000000     0.343680000000     0.000000000000     0.052      
O        O      0.398985000000     0.295515000000     0.000000000000     0.052      
O        O      0.264960000000     0.301145000000     0.000000000000     0.052      
O        O      0.367880000000     0.245940000000     0.000000000000     0.052      
O        O      0.156320000000     0.465660000000     0.000000000000     0.052      
O        O      0.204485000000     0.103470000000     0.000000000000     0.052      
O        O      0.198855000000     0.463815000000     0.000000000000     0.052      
O        O      0.254060000000     0.121940000000     0.000000000000     0.052      
O        O      0.465660000000     0.309340000000     0.000000000000     0.052      
O        O      0.103470000000     0.398985000000     0.000000000000     0.052      
O        O      0.463815000000     0.264960000000     0.000000000000     0.052      
O        O      0.121940000000     0.367880000000     0.000000000000     0.052      
O        O      0.190660000000     0.156320000000     0.000000000000     0.052      
O        O      0.101015000000     0.204485000000     0.000000000000     0.052      
O        O      0.235040000000     0.198855000000     0.000000000000     0.052      
O        O      0.132120000000     0.254060000000     0.000000000000     0.052      
O        O      0.343680000000     0.034340000000     0.000000000000     0.052      
O        O      0.295515000000     0.396530000000     0.000000000000     0.052      
O        O      0.301145000000     0.036185000000     0.000000000000     0.052      
O        O      0.245940000000     0.378060000000     0.000000000000     0.052      
O        O      0.190660000000     0.034340000000     0.500000000000     0.052      
O        O      0.101015000000     0.396530000000     0.500000000000     0.052      
O        O      0.235040000000     0.036185000000     0.500000000000     0.052      
O        O      0.132120000000     0.378060000000     0.500000000000     0.052      
O        O      0.343680000000     0.309340000000     0.500000000000     0.052      
O        O      0.295515000000     0.398985000000     0.500000000000     0.052      
O        O      0.301145000000     0.264960000000     0.500000000000     0.052      
O        O      0.245940000000     0.367880000000     0.500000000000     0.052      
O        O      0.465660000000     0.156320000000     0.500000000000     0.052      
O        O      0.103470000000     0.204485000000     0.500000000000     0.052      
O        O      0.463815000000     0.198855000000     0.500000000000     0.052      
O        O      0.121940000000     0.254060000000     0.500000000000     0.052      
O        O      0.309340000000     0.465660000000     0.500000000000     0.052      
O        O      0.398985000000     0.103470000000     0.500000000000     0.052      
O        O      0.264960000000     0.463815000000     0.500000000000     0.052      
O        O      0.367880000000     0.121940000000     0.500000000000     0.052      
O        O      0.156320000000     0.190660000000     0.500000000000     0.052      
O        O      0.204485000000     0.101015000000     0.500000000000     0.052      
O        O      0.198855000000     0.235040000000     0.500000000000     0.052      
O        O      0.254060000000     0.132120000000     0.500000000000     0.052      
O        O      0.034340000000     0.343680000000     0.500000000000     0.052      
O        O      0.396530000000     0.295515000000     0.500000000000     0.052      
O        O      0.036185000000     0.301145000000     0.500000000000     0.052      
O        O      0.378060000000     0.245940000000     0.500000000000     0.052      
O        O      0.348435000000     0.580765000000     0.078910000000     0.052      
O        O      0.318205000000     0.596635000000     0.051360000000     0.052      
O        O      0.419235000000     0.767670000000     0.078910000000     0.052      
O        O      0.403365000000     0.721570000000     0.051360000000     0.052      
O        O      0.232330000000     0.651565000000     0.078910000000     0.052      
O        O      0.278430000000     0.681795000000     0.051360000000     0.052      
O        O      0.151565000000     0.919235000000     0.078910000000     0.052      
O        O      0.181795000000     0.903365000000     0.051360000000     0.052      
O        O      0.080765000000     0.732330000000     0.078910000000     0.052      
O        O      0.096635000000     0.778430000000     0.051360000000     0.052      
O        O      0.267670000000     0.848435000000     0.078910000000     0.052      
O        O      0.221570000000     0.818205000000     0.051360000000     0.052      
O        O      0.080765000000     0.848435000000     0.421090000000     0.052      
O        O      0.096635000000     0.818205000000     0.448640000000     0.052      
O        O      0.267670000000     0.919235000000     0.421090000000     0.052      
O        O      0.221570000000     0.903365000000     0.448640000000     0.052      
O        O      0.151565000000     0.732330000000     0.421090000000     0.052      
O        O      0.181795000000     0.778430000000     0.448640000000     0.052      
O        O      0.419235000000     0.651565000000     0.421090000000     0.052      
O        O      0.403365000000     0.681795000000     0.448640000000     0.052      
O        O      0.232330000000     0.580765000000     0.421090000000     0.052      
O        O      0.278430000000     0.596635000000     0.448640000000     0.052      
O        O      0.348435000000     0.767670000000     0.421090000000     0.052      
O        O      0.318205000000     0.721570000000     0.448640000000     0.052      
O        O      0.151565000000     0.919235000000     0.921090000000     0.052      
O        O      0.181795000000     0.903365000000     0.948640000000     0.052      
O        O      0.080765000000     0.732330000000     0.921090000000     0.052      
O        O      0.096635000000     0.778430000000     0.948640000000     0.052      
O        O      0.267670000000     0.848435000000     0.921090000000     0.052      
O        O      0.221570000000     0.818205000000     0.948640000000     0.052      
O        O      0.348435000000     0.580765000000     0.921090000000     0.052      
O        O      0.318205000000     0.596635000000     0.948640000000     0.052      
O        O      0.419235000000     0.767670000000     0.921090000000     0.052      
O        O      0.403365000000     0.721570000000     0.948640000000     0.052      
O        O      0.232330000000     0.651565000000     0.921090000000     0.052      
O        O      0.278430000000     0.681795000000     0.948640000000     0.052      
O        O      0.419235000000     0.651565000000     0.578910000000     0.052      
O        O      0.403365000000     0.681795000000     0.551360000000     0.052      
O        O      0.232330000000     0.580765000000     0.578910000000     0.052      
O        O      0.278430000000     0.596635000000     0.551360000000     0.052      
O        O      0.348435000000     0.767670000000     0.578910000000     0.052      
O        O      0.318205000000     0.721570000000     0.551360000000     0.052      
O        O      0.080765000000     0.848435000000     0.578910000000     0.052      
O        O      0.096635000000     0.818205000000     0.551360000000     0.052      
O        O      0.267670000000     0.919235000000     0.578910000000     0.052      
O        O      0.221570000000     0.903365000000     0.551360000000     0.052      
O        O      0.151565000000     0.732330000000     0.578910000000     0.052      
O        O      0.181795000000     0.778430000000     0.551360000000     0.052      
O        O      0.034340000000     0.690660000000     0.000000000000     0.052      
O        O      0.396530000000     0.601015000000     0.000000000000     0.052      
O        O      0.036185000000     0.735040000000     0.000000000000     0.052      
O        O      0.378060000000     0.632120000000     0.000000000000     0.052      
O        O      0.309340000000     0.843680000000     0.000000000000     0.052      
O        O      0.398985000000     0.795515000000     0.000000000000     0.052      
O        O      0.264960000000     0.801145000000     0.000000000000     0.052      
O        O      0.367880000000     0.745940000000     0.000000000000     0.052      
O        O      0.156320000000     0.965660000000     0.000000000000     0.052      
O        O      0.204485000000     0.603470000000     0.000000000000     0.052      
O        O      0.198855000000     0.963815000000     0.000000000000     0.052      
O        O      0.254060000000     0.621940000000     0.000000000000     0.052      
O        O      0.465660000000     0.809340000000     0.000000000000     0.052      
O        O      0.103470000000     0.898985000000     0.000000000000     0.052      
O        O      0.463815000000     0.764960000000     0.000000000000     0.052      
O        O      0.121940000000     0.867880000000     0.000000000000     0.052      
O        O      0.190660000000     0.656320000000     0.000000000000     0.052      
O        O      0.101015000000     0.704485000000     0.000000000000     0.052      
O        O      0.235040000000     0.698855000000     0.000000000000     0.052      
O        O      0.132120000000     0.754060000000     0.000000000000     0.052      
O        O      0.343680000000     0.534340000000     0.000000000000     0.052      
O        O      0.295515000000     0.896530000000     0.000000000000     0.052      
O        O      0.301145000000     0.536185000000     0.000000000000     0.052      
O        O      0.245940000000     0.878060000000     0.000000000000     0.052      
O        O      0.190660000000     0.534340000000     0.500000000000     0.052      
O        O      0.101015000000     0.896530000000     0.500000000000     0.052      
O        O      0.235040000000     0.536185000000     0.500000000000     0.052      
O        O      0.132120000000     0.878060000000     0.500000000000     0.052      
O        O      0.343680000000     0.809340000000     0.500000000000     0.052      
O        O      0.295515000000     0.898985000000     0.500000000000     0.052      
O        O      0.301145000000     0.764960000000     0.500000000000     0.052      
O        O      0.245940000000     0.867880000000     0.500000000000     0.052      
O        O      0.465660000000     0.656320000000     0.500000000000     0.052      
O        O      0.103470000000     0.704485000000     0.500000000000     0.052      
O        O      0.463815000000     0.698855000000     0.500000000000     0.052      
O        O      0.121940000000     0.754060000000     0.500000000000     0.052      
O        O      0.309340000000     0.965660000000     0.500000000000     0.052      
O        O      0.398985000000     0.603470000000     0.500000000000     0.052      
O        O      0.264960000000     0.963815000000     0.500000000000     0.052      
O        O      0.367880000000     0.621940000000     0.500000000000     0.052      
O        O      0.156320000000     0.690660000000     0.500000000000     0.052      
O        O      0.204485000000     0.601015000000     0.500000000000     0.052      
O        O      0.198855000000     0.735040000000     0.500000000000     0.052      
O        O      0.254060000000     0.632120000000     0.500000000000     0.052      
O        O      0.034340000000     0.843680000000     0.500000000000     0.052      
O        O      0.396530000000     0.795515000000     0.500000000000     0.052      
O        O      0.036185000000     0.801145000000     0.500000000000     0.052      
O        O      0.378060000000     0.745940000000     0.500000000000     0.052      
O        O      0.848435000000     0.080765000000     0.078910000000     0.052      
O        O      0.818205000000     0.096635000000     0.051360000000     0.052      
O        O      0.919235000000     0.267670000000     0.078910000000     0.052      
O        O      0.903365000000     0.221570000000     0.051360000000     0.052      
O        O      0.732330000000     0.151565000000     0.078910000000     0.052      
O        O      0.778430000000     0.181795000000     0.051360000000     0.052      
O        O      0.651565000000     0.419235000000     0.078910000000     0.052      
O        O      0.681795000000     0.403365000000     0.051360000000     0.052      
O        O      0.580765000000     0.232330000000     0.078910000000     0.052      
O        O      0.596635000000     0.278430000000     0.051360000000     0.052      
O        O      0.767670000000     0.348435000000     0.078910000000     0.052      
O        O      0.721570000000     0.318205000000     0.051360000000     0.052      
O        O      0.580765000000     0.348435000000     0.421090000000     0.052      
O        O      0.596635000000     0.318205000000     0.448640000000     0.052      
O        O      0.767670000000     0.419235000000     0.421090000000     0.052      
O        O      0.721570000000     0.403365000000     0.448640000000     0.052      
O        O      0.651565000000     0.232330000000     0.421090000000     0.052      
O        O      0.681795000000     0.278430000000     0.448640000000     0.052      
O        O      0.919235000000     0.151565000000     0.421090000000     0.052      
O        O      0.903365000000     0.181795000000     0.448640000000     0.052      
O        O      0.732330000000     0.080765000000     0.421090000000     0.052      
O        O      0.778430000000     0.096635000000     0.448640000000     0.052      
O        O      0.848435000000     0.267670000000     0.421090000000     0.052      
O        O      0.818205000000     0.221570000000     0.448640000000     0.052      
O        O      0.651565000000     0.419235000000     0.921090000000     0.052      
O        O      0.681795000000     0.403365000000     0.948640000000     0.052      
O        O      0.580765000000     0.232330000000     0.921090000000     0.052      
O        O      0.596635000000     0.278430000000     0.948640000000     0.052      
O        O      0.767670000000     0.348435000000     0.921090000000     0.052      
O        O      0.721570000000     0.318205000000     0.948640000000     0.052      
O        O      0.848435000000     0.080765000000     0.921090000000     0.052      
O        O      0.818205000000     0.096635000000     0.948640000000     0.052      
O        O      0.919235000000     0.267670000000     0.921090000000     0.052      
O        O      0.903365000000     0.221570000000     0.948640000000     0.052      
O        O      0.732330000000     0.151565000000     0.921090000000     0.052      
O        O      0.778430000000     0.181795000000     0.948640000000     0.052      
O        O      0.919235000000     0.151565000000     0.578910000000     0.052      
O        O      0.903365000000     0.181795000000     0.551360000000     0.052      
O        O      0.732330000000     0.080765000000     0.578910000000     0.052      
O        O      0.778430000000     0.096635000000     0.551360000000     0.052      
O        O      0.848435000000     0.267670000000     0.578910000000     0.052      
O        O      0.818205000000     0.221570000000     0.551360000000     0.052      
O        O      0.580765000000     0.348435000000     0.578910000000     0.052      
O        O      0.596635000000     0.318205000000     0.551360000000     0.052      
O        O      0.767670000000     0.419235000000     0.578910000000     0.052      
O        O      0.721570000000     0.403365000000     0.551360000000     0.052      
O        O      0.651565000000     0.232330000000     0.578910000000     0.052      
O        O      0.681795000000     0.278430000000     0.551360000000     0.052      
O        O      0.534340000000     0.190660000000     0.000000000000     0.052      
O        O      0.896530000000     0.101015000000     0.000000000000     0.052      
O        O      0.536185000000     0.235040000000     0.000000000000     0.052      
O        O      0.878060000000     0.132120000000     0.000000000000     0.052      
O        O      0.809340000000     0.343680000000     0.000000000000     0.052      
O        O      0.898985000000     0.295515000000     0.000000000000     0.052      
O        O      0.764960000000     0.301145000000     0.000000000000     0.052      
O        O      0.867880000000     0.245940000000     0.000000000000     0.052      
O        O      0.656320000000     0.465660000000     0.000000000000     0.052      
O        O      0.704485000000     0.103470000000     0.000000000000     0.052      
O        O      0.698855000000     0.463815000000     0.000000000000     0.052      
O        O      0.754060000000     0.121940000000     0.000000000000     0.052      
O        O      0.965660000000     0.309340000000     0.000000000000     0.052      
O        O      0.603470000000     0.398985000000     0.000000000000     0.052      
O        O      0.963815000000     0.264960000000     0.000000000000     0.052      
O        O      0.621940000000     0.367880000000     0.000000000000     0.052      
O        O      0.690660000000     0.156320000000     0.000000000000     0.052      
O        O      0.601015000000     0.204485000000     0.000000000000     0.052      
O        O      0.735040000000     0.198855000000     0.000000000000     0.052      
O        O      0.632120000000     0.254060000000     0.000000000000     0.052      
O        O      0.843680000000     0.034340000000     0.000000000000     0.052      
O        O      0.795515000000     0.396530000000     0.000000000000     0.052      
O        O      0.801145000000     0.036185000000     0.000000000000     0.052      
O        O      0.745940000000     0.378060000000     0.000000000000     0.052      
O        O      0.690660000000     0.034340000000     0.500000000000     0.052      
O        O      0.601015000000     0.396530000000     0.500000000000     0.052      
O        O      0.735040000000     0.036185000000     0.500000000000     0.052      
O        O      0.632120000000     0.378060000000     0.500000000000     0.052      
O        O      0.843680000000     0.309340000000     0.500000000000     0.052      
O        O      0.795515000000     0.398985000000     0.500000000000     0.052      
O        O      0.801145000000     0.264960000000     0.500000000000     0.052      
O        O      0.745940000000     0.367880000000     0.500000000000     0.052      
O        O      0.965660000000     0.156320000000     0.500000000000     0.052      
O        O      0.603470000000     0.204485000000     0.500000000000     0.052      
O        O      0.963815000000     0.198855000000     0.500000000000     0.052      
O        O      0.621940000000     0.254060000000     0.500000000000     0.052      
O        O      0.809340000000     0.465660000000     0.500000000000     0.052      
O        O      0.898985000000     0.103470000000     0.500000000000     0.052      
O        O      0.764960000000     0.463815000000     0.500000000000     0.052      
O        O      0.867880000000     0.121940000000     0.500000000000     0.052      
O        O      0.656320000000     0.190660000000     0.500000000000     0.052      
O        O      0.704485000000     0.101015000000     0.500000000000     0.052      
O        O      0.698855000000     0.235040000000     0.500000000000     0.052      
O        O      0.754060000000     0.132120000000     0.500000000000     0.052      
O        O      0.534340000000     0.343680000000     0.500000000000     0.052      
O        O      0.896530000000     0.295515000000     0.500000000000     0.052      
O        O      0.536185000000     0.301145000000     0.500000000000     0.052      
O        O      0.878060000000     0.245940000000     0.500000000000     0.052      
O        O      0.848435000000     0.580765000000     0.078910000000     0.052      
O        O      0.818205000000     0.596635000000     0.051360000000     0.052      
O        O      0.919235000000     0.767670000000     0.078910000000     0.052      
O        O      0.903365000000     0.721570000000     0.051360000000     0.052      
O        O      0.732330000000     0.651565000000     0.078910000000     0.052      
O        O      0.778430000000     0.681795000000     0.051360000000     0.052      
O        O      0.651565000000     0.919235000000     0.078910000000     0.052      
O        O      0.681795000000     0.903365000000     0.051360000000     0.052      
O        O      0.580765000000     0.732330000000     0.078910000000     0.052      
O        O      0.596635000000     0.778430000000     0.051360000000     0.052      
O        O      0.767670000000     0.848435000000     0.078910000000     0.052      
O        O      0.721570000000     0.818205000000     0.051360000000     0.052      
O        O      0.580765000000     0.848435000000     0.421090000000     0.052      
O        O      0.596635000000     0.818205000000     0.448640000000     0.052      
O        O      0.767670000000     0.919235000000     0.421090000000     0.052      
O        O      0.721570000000     0.903365000000     0.448640000000     0.052      
O        O      0.651565000000     0.732330000000     0.421090000000     0.052      
O        O      0.681795000000     0.778430000000     0.448640000000     0.052      
O        O      0.919235000000     0.651565000000     0.421090000000     0.052      
O        O      0.903365000000     0.681795000000     0.448640000000     0.052      
O        O      0.732330000000     0.580765000000     0.421090000000     0.052      
O        O      0.778430000000     0.596635000000     0.448640000000     0.052      
O        O      0.848435000000     0.767670000000     0.421090000000     0.052      
O        O      0.818205000000     0.721570000000     0.448640000000     0.052      
O        O      0.651565000000     0.919235000000     0.921090000000     0.052      
O        O      0.681795000000     0.903365000000     0.948640000000     0.052      
O        O      0.580765000000     0.732330000000     0.921090000000     0.052      
O        O      0.596635000000     0.778430000000     0.948640000000     0.052      
O        O      0.767670000000     0.848435000000     0.921090000000     0.052      
O        O      0.721570000000     0.818205000000     0.948640000000     0.052      
O        O      0.848435000000     0.580765000000     0.921090000000     0.052      
O        O      0.818205000000     0.596635000000     0.948640000000     0.052      
O        O      0.919235000000     0.767670000000     0.921090000000     0.052      
O        O      0.903365000000     0.721570000000     0.948640000000     0.052      
O        O      0.732330000000     0.651565000000     0.921090000000     0.052      
O        O      0.778430000000     0.681795000000     0.948640000000     0.052      
O        O      0.919235000000     0.651565000000     0.578910000000     0.052      
O        O      0.903365000000     0.681795000000     0.551360000000     0.052      
O        O      0.732330000000     0.580765000000     0.578910000000     0.052      
O        O      0.778430000000     0.596635000000     0.551360000000     0.052      
O        O      0.848435000000     0.767670000000     0.578910000000     0.052      
O        O      0.818205000000     0.721570000000     0.551360000000     0.052      
O        O      0.580765000000     0.848435000000     0.578910000000     0.052      
O        O      0.596635000000     0.818205000000     0.551360000000     0.052      
O        O      0.767670000000     0.919235000000     0.578910000000     0.052      
O        O      0.721570000000     0.903365000000     0.551360000000     0.052      
O        O      0.651565000000     0.732330000000     0.578910000000     0.052      
O        O      0.681795000000     0.778430000000     0.551360000000     0.052      
O        O      0.534340000000     0.690660000000     0.000000000000     0.052      
O        O      0.896530000000     0.601015000000     0.000000000000     0.052      
O        O      0.536185000000     0.735040000000     0.000000000000     0.052      
O        O      0.878060000000     0.632120000000     0.000000000000     0.052      
O        O      0.809340000000     0.843680000000     0.000000000000     0.052      
O        O      0.898985000000     0.795515000000     0.000000000000     0.052      
O        O      0.764960000000     0.801145000000     0.000000000000     0.052      
O        O      0.867880000000     0.745940000000     0.000000000000     0.052      
O        O      0.656320000000     0.965660000000     0.000000000000     0.052      
O        O      0.704485000000     0.603470000000     0.000000000000     0.052      
O        O      0.698855000000     0.963815000000     0.000000000000     0.052      
O        O      0.754060000000     0.621940000000     0.000000000000     0.052      
O        O      0.965660000000     0.809340000000     0.000000000000     0.052      
O        O      0.603470000000     0.898985000000     0.000000000000     0.052      
O        O      0.963815000000     0.764960000000     0.000000000000     0.052      
O        O      0.621940000000     0.867880000000     0.000000000000     0.052      
O        O      0.690660000000     0.656320000000     0.000000000000     0.052      
O        O      0.601015000000     0.704485000000     0.000000000000     0.052      
O        O      0.735040000000     0.698855000000     0.000000000000     0.052      
O        O      0.632120000000     0.754060000000     0.000000000000     0.052      
O        O      0.843680000000     0.534340000000     0.000000000000     0.052      
O        O      0.795515000000     0.896530000000     0.000000000000     0.052      
O        O      0.801145000000     0.536185000000     0.000000000000     0.052      
O        O      0.745940000000     0.878060000000     0.000000000000     0.052      
O        O      0.690660000000     0.534340000000     0.500000000000     0.052      
O        O      0.601015000000     0.896530000000     0.500000000000     0.052      
O        O      0.735040000000     0.536185000000     0.500000000000     0.052      
O        O      0.632120000000     0.878060000000     0.500000000000     0.052      
O        O      0.843680000000     0.809340000000     0.500000000000     0.052      
O        O      0.795515000000     0.898985000000     0.500000000000     0.052      
O        O      0.801145000000     0.764960000000     0.500000000000     0.052      
O        O      0.745940000000     0.867880000000     0.500000000000     0.052      
O        O      0.965660000000     0.656320000000     0.500000000000     0.052      
O        O      0.603470000000     0.704485000000     0.500000000000     0.052      
O        O      0.963815000000     0.698855000000     0.500000000000     0.052      
O        O      0.621940000000     0.754060000000     0.500000000000     0.052      
O        O      0.809340000000     0.965660000000     0.500000000000     0.052      
O        O      0.898985000000     0.603470000000     0.500000000000     0.052      
O        O      0.764960000000     0.963815000000     0.500000000000     0.052      
O        O      0.867880000000     0.621940000000     0.500000000000     0.052      
O        O      0.656320000000     0.690660000000     0.500000000000     0.052      
O        O      0.704485000000     0.601015000000     0.500000000000     0.052      
O        O      0.698855000000     0.735040000000     0.500000000000     0.052      
O        O      0.754060000000     0.632120000000     0.500000000000     0.052      
O        O      0.534340000000     0.843680000000     0.500000000000     0.052      
O        O      0.896530000000     0.795515000000     0.500000000000     0.052      
O        O      0.536185000000     0.801145000000     0.500000000000     0.052      
O        O      0.878060000000     0.745940000000     0.500000000000     0.052      
C        C      0.330375000000     0.091255000000     0.085390000000    -0.096      
C        C      0.323250000000     0.096700000000     0.134250000000    -0.096      
C        C      0.336650000000     0.090700000000     0.172420000000    -0.096      
C        C      0.303200000000     0.107400000000     0.141900000000    -0.096      
C        C      0.328150000000     0.093700000000     0.217980000000    -0.096      
C        C      0.295200000000     0.110650000000     0.187370000000    -0.096      
C        C      0.307100000000     0.103250000000     0.225570000000    -0.096      
C        C      0.408745000000     0.239120000000     0.085390000000    -0.096      
C        C      0.403300000000     0.226550000000     0.134250000000    -0.096      
C        C      0.409300000000     0.245950000000     0.172420000000    -0.096      
C        C      0.392600000000     0.195800000000     0.141900000000    -0.096      
C        C      0.406300000000     0.234450000000     0.217980000000    -0.096      
C        C      0.389350000000     0.184550000000     0.187370000000    -0.096      
C        C      0.396750000000     0.203850000000     0.225570000000    -0.096      
C        C      0.260880000000     0.169625000000     0.085390000000    -0.096      
C        C      0.273450000000     0.176750000000     0.134250000000    -0.096      
C        C      0.254050000000     0.163350000000     0.172420000000    -0.096      
C        C      0.304200000000     0.196800000000     0.141900000000    -0.096      
C        C      0.265550000000     0.171850000000     0.217980000000    -0.096      
C        C      0.315450000000     0.204800000000     0.187370000000    -0.096      
C        C      0.296150000000     0.192900000000     0.225570000000    -0.096      
C        C      0.169625000000     0.408745000000     0.085390000000    -0.096      
C        C      0.176750000000     0.403300000000     0.134250000000    -0.096      
C        C      0.163350000000     0.409300000000     0.172420000000    -0.096      
C        C      0.196800000000     0.392600000000     0.141900000000    -0.096      
C        C      0.171850000000     0.406300000000     0.217980000000    -0.096      
C        C      0.204800000000     0.389350000000     0.187370000000    -0.096      
C        C      0.192900000000     0.396750000000     0.225570000000    -0.096      
C        C      0.091255000000     0.260880000000     0.085390000000    -0.096      
C        C      0.096700000000     0.273450000000     0.134250000000    -0.096      
C        C      0.090700000000     0.254050000000     0.172420000000    -0.096      
C        C      0.107400000000     0.304200000000     0.141900000000    -0.096      
C        C      0.093700000000     0.265550000000     0.217980000000    -0.096      
C        C      0.110650000000     0.315450000000     0.187370000000    -0.096      
C        C      0.103250000000     0.296150000000     0.225570000000    -0.096      
C        C      0.239120000000     0.330375000000     0.085390000000    -0.096      
C        C      0.226550000000     0.323250000000     0.134250000000    -0.096      
C        C      0.245950000000     0.336650000000     0.172420000000    -0.096      
C        C      0.195800000000     0.303200000000     0.141900000000    -0.096      
C        C      0.234450000000     0.328150000000     0.217980000000    -0.096      
C        C      0.184550000000     0.295200000000     0.187370000000    -0.096      
C        C      0.203850000000     0.307100000000     0.225570000000    -0.096      
C        C      0.091255000000     0.330375000000     0.414610000000    -0.096      
C        C      0.096700000000     0.323250000000     0.365750000000    -0.096      
C        C      0.090700000000     0.336650000000     0.327580000000    -0.096      
C        C      0.107400000000     0.303200000000     0.358100000000    -0.096      
C        C      0.093700000000     0.328150000000     0.282020000000    -0.096      
C        C      0.110650000000     0.295200000000     0.312630000000    -0.096      
C        C      0.103250000000     0.307100000000     0.274430000000    -0.096      
C        C      0.239120000000     0.408745000000     0.414610000000    -0.096      
C        C      0.226550000000     0.403300000000     0.365750000000    -0.096      
C        C      0.245950000000     0.409300000000     0.327580000000    -0.096      
C        C      0.195800000000     0.392600000000     0.358100000000    -0.096      
C        C      0.234450000000     0.406300000000     0.282020000000    -0.096      
C        C      0.184550000000     0.389350000000     0.312630000000    -0.096      
C        C      0.203850000000     0.396750000000     0.274430000000    -0.096      
C        C      0.169625000000     0.260880000000     0.414610000000    -0.096      
C        C      0.176750000000     0.273450000000     0.365750000000    -0.096      
C        C      0.163350000000     0.254050000000     0.327580000000    -0.096      
C        C      0.196800000000     0.304200000000     0.358100000000    -0.096      
C        C      0.171850000000     0.265550000000     0.282020000000    -0.096      
C        C      0.204800000000     0.315450000000     0.312630000000    -0.096      
C        C      0.192900000000     0.296150000000     0.274430000000    -0.096      
C        C      0.408745000000     0.169625000000     0.414610000000    -0.096      
C        C      0.403300000000     0.176750000000     0.365750000000    -0.096      
C        C      0.409300000000     0.163350000000     0.327580000000    -0.096      
C        C      0.392600000000     0.196800000000     0.358100000000    -0.096      
C        C      0.406300000000     0.171850000000     0.282020000000    -0.096      
C        C      0.389350000000     0.204800000000     0.312630000000    -0.096      
C        C      0.396750000000     0.192900000000     0.274430000000    -0.096      
C        C      0.260880000000     0.091255000000     0.414610000000    -0.096      
C        C      0.273450000000     0.096700000000     0.365750000000    -0.096      
C        C      0.254050000000     0.090700000000     0.327580000000    -0.096      
C        C      0.304200000000     0.107400000000     0.358100000000    -0.096      
C        C      0.265550000000     0.093700000000     0.282020000000    -0.096      
C        C      0.315450000000     0.110650000000     0.312630000000    -0.096      
C        C      0.296150000000     0.103250000000     0.274430000000    -0.096      
C        C      0.330375000000     0.239120000000     0.414610000000    -0.096      
C        C      0.323250000000     0.226550000000     0.365750000000    -0.096      
C        C      0.336650000000     0.245950000000     0.327580000000    -0.096      
C        C      0.303200000000     0.195800000000     0.358100000000    -0.096      
C        C      0.328150000000     0.234450000000     0.282020000000    -0.096      
C        C      0.295200000000     0.184550000000     0.312630000000    -0.096      
C        C      0.307100000000     0.203850000000     0.274430000000    -0.096      
C        C      0.169625000000     0.408745000000     0.914610000000    -0.096      
C        C      0.176750000000     0.403300000000     0.865750000000    -0.096      
C        C      0.163350000000     0.409300000000     0.827580000000    -0.096      
C        C      0.196800000000     0.392600000000     0.858100000000    -0.096      
C        C      0.171850000000     0.406300000000     0.782020000000    -0.096      
C        C      0.204800000000     0.389350000000     0.812630000000    -0.096      
C        C      0.192900000000     0.396750000000     0.774430000000    -0.096      
C        C      0.091255000000     0.260880000000     0.914610000000    -0.096      
C        C      0.096700000000     0.273450000000     0.865750000000    -0.096      
C        C      0.090700000000     0.254050000000     0.827580000000    -0.096      
C        C      0.107400000000     0.304200000000     0.858100000000    -0.096      
C        C      0.093700000000     0.265550000000     0.782020000000    -0.096      
C        C      0.110650000000     0.315450000000     0.812630000000    -0.096      
C        C      0.103250000000     0.296150000000     0.774430000000    -0.096      
C        C      0.239120000000     0.330375000000     0.914610000000    -0.096      
C        C      0.226550000000     0.323250000000     0.865750000000    -0.096      
C        C      0.245950000000     0.336650000000     0.827580000000    -0.096      
C        C      0.195800000000     0.303200000000     0.858100000000    -0.096      
C        C      0.234450000000     0.328150000000     0.782020000000    -0.096      
C        C      0.184550000000     0.295200000000     0.812630000000    -0.096      
C        C      0.203850000000     0.307100000000     0.774430000000    -0.096      
C        C      0.330375000000     0.091255000000     0.914610000000    -0.096      
C        C      0.323250000000     0.096700000000     0.865750000000    -0.096      
C        C      0.336650000000     0.090700000000     0.827580000000    -0.096      
C        C      0.303200000000     0.107400000000     0.858100000000    -0.096      
C        C      0.328150000000     0.093700000000     0.782020000000    -0.096      
C        C      0.295200000000     0.110650000000     0.812630000000    -0.096      
C        C      0.307100000000     0.103250000000     0.774430000000    -0.096      
C        C      0.408745000000     0.239120000000     0.914610000000    -0.096      
C        C      0.403300000000     0.226550000000     0.865750000000    -0.096      
C        C      0.409300000000     0.245950000000     0.827580000000    -0.096      
C        C      0.392600000000     0.195800000000     0.858100000000    -0.096      
C        C      0.406300000000     0.234450000000     0.782020000000    -0.096      
C        C      0.389350000000     0.184550000000     0.812630000000    -0.096      
C        C      0.396750000000     0.203850000000     0.774430000000    -0.096      
C        C      0.260880000000     0.169625000000     0.914610000000    -0.096      
C        C      0.273450000000     0.176750000000     0.865750000000    -0.096      
C        C      0.254050000000     0.163350000000     0.827580000000    -0.096      
C        C      0.304200000000     0.196800000000     0.858100000000    -0.096      
C        C      0.265550000000     0.171850000000     0.782020000000    -0.096      
C        C      0.315450000000     0.204800000000     0.812630000000    -0.096      
C        C      0.296150000000     0.192900000000     0.774430000000    -0.096      
C        C      0.408745000000     0.169625000000     0.585390000000    -0.096      
C        C      0.403300000000     0.176750000000     0.634250000000    -0.096      
C        C      0.409300000000     0.163350000000     0.672420000000    -0.096      
C        C      0.392600000000     0.196800000000     0.641900000000    -0.096      
C        C      0.406300000000     0.171850000000     0.717980000000    -0.096      
C        C      0.389350000000     0.204800000000     0.687370000000    -0.096      
C        C      0.396750000000     0.192900000000     0.725570000000    -0.096      
C        C      0.260880000000     0.091255000000     0.585390000000    -0.096      
C        C      0.273450000000     0.096700000000     0.634250000000    -0.096      
C        C      0.254050000000     0.090700000000     0.672420000000    -0.096      
C        C      0.304200000000     0.107400000000     0.641900000000    -0.096      
C        C      0.265550000000     0.093700000000     0.717980000000    -0.096      
C        C      0.315450000000     0.110650000000     0.687370000000    -0.096      
C        C      0.296150000000     0.103250000000     0.725570000000    -0.096      
C        C      0.330375000000     0.239120000000     0.585390000000    -0.096      
C        C      0.323250000000     0.226550000000     0.634250000000    -0.096      
C        C      0.336650000000     0.245950000000     0.672420000000    -0.096      
C        C      0.303200000000     0.195800000000     0.641900000000    -0.096      
C        C      0.328150000000     0.234450000000     0.717980000000    -0.096      
C        C      0.295200000000     0.184550000000     0.687370000000    -0.096      
C        C      0.307100000000     0.203850000000     0.725570000000    -0.096      
C        C      0.091255000000     0.330375000000     0.585390000000    -0.096      
C        C      0.096700000000     0.323250000000     0.634250000000    -0.096      
C        C      0.090700000000     0.336650000000     0.672420000000    -0.096      
C        C      0.107400000000     0.303200000000     0.641900000000    -0.096      
C        C      0.093700000000     0.328150000000     0.717980000000    -0.096      
C        C      0.110650000000     0.295200000000     0.687370000000    -0.096      
C        C      0.103250000000     0.307100000000     0.725570000000    -0.096      
C        C      0.239120000000     0.408745000000     0.585390000000    -0.096      
C        C      0.226550000000     0.403300000000     0.634250000000    -0.096      
C        C      0.245950000000     0.409300000000     0.672420000000    -0.096      
C        C      0.195800000000     0.392600000000     0.641900000000    -0.096      
C        C      0.234450000000     0.406300000000     0.717980000000    -0.096      
C        C      0.184550000000     0.389350000000     0.687370000000    -0.096      
C        C      0.203850000000     0.396750000000     0.725570000000    -0.096      
C        C      0.169625000000     0.260880000000     0.585390000000    -0.096      
C        C      0.176750000000     0.273450000000     0.634250000000    -0.096      
C        C      0.163350000000     0.254050000000     0.672420000000    -0.096      
C        C      0.196800000000     0.304200000000     0.641900000000    -0.096      
C        C      0.171850000000     0.265550000000     0.717980000000    -0.096      
C        C      0.204800000000     0.315450000000     0.687370000000    -0.096      
C        C      0.192900000000     0.296150000000     0.725570000000    -0.096      
C        C      0.400500000000     0.127700000000     0.000000000000    -0.096      
C        C      0.431700000000     0.154850000000     0.000000000000    -0.096      
C        C      0.487250000000     0.190500000000     0.000000000000    -0.096      
C        C      0.020800000000     0.206000000000     0.000000000000    -0.096      
C        C      0.438750000000     0.184550000000     0.000000000000    -0.096      
C        C      0.469850000000     0.204700000000     0.000000000000    -0.096      
C        C      0.372300000000     0.272800000000     0.000000000000    -0.096      
C        C      0.345150000000     0.276850000000     0.000000000000    -0.096      
C        C      0.309500000000     0.296750000000     0.000000000000    -0.096      
C        C      0.294000000000     0.314800000000     0.000000000000    -0.096      
C        C      0.315450000000     0.254200000000     0.000000000000    -0.096      
C        C      0.295300000000     0.265150000000     0.000000000000    -0.096      
C        C      0.227200000000     0.099500000000     0.000000000000    -0.096      
C        C      0.223150000000     0.068300000000     0.000000000000    -0.096      
C        C      0.203250000000     0.012750000000     0.000000000000    -0.096      
C        C      0.185200000000     0.479200000000     0.000000000000    -0.096      
C        C      0.245800000000     0.061250000000     0.000000000000    -0.096      
C        C      0.234850000000     0.030150000000     0.000000000000    -0.096      
C        C      0.099500000000     0.372300000000     0.000000000000    -0.096      
C        C      0.068300000000     0.345150000000     0.000000000000    -0.096      
C        C      0.012750000000     0.309500000000     0.000000000000    -0.096      
C        C      0.479200000000     0.294000000000     0.000000000000    -0.096      
C        C      0.061250000000     0.315450000000     0.000000000000    -0.096      
C        C      0.030150000000     0.295300000000     0.000000000000    -0.096      
C        C      0.127700000000     0.227200000000     0.000000000000    -0.096      
C        C      0.154850000000     0.223150000000     0.000000000000    -0.096      
C        C      0.190500000000     0.203250000000     0.000000000000    -0.096      
C        C      0.206000000000     0.185200000000     0.000000000000    -0.096      
C        C      0.184550000000     0.245800000000     0.000000000000    -0.096      
C        C      0.204700000000     0.234850000000     0.000000000000    -0.096      
C        C      0.272800000000     0.400500000000     0.000000000000    -0.096      
C        C      0.276850000000     0.431700000000     0.000000000000    -0.096      
C        C      0.296750000000     0.487250000000     0.000000000000    -0.096      
C        C      0.314800000000     0.020800000000     0.000000000000    -0.096      
C        C      0.254200000000     0.438750000000     0.000000000000    -0.096      
C        C      0.265150000000     0.469850000000     0.000000000000    -0.096      
C        C      0.127700000000     0.400500000000     0.500000000000    -0.096      
C        C      0.154850000000     0.431700000000     0.500000000000    -0.096      
C        C      0.190500000000     0.487250000000     0.500000000000    -0.096      
C        C      0.206000000000     0.020800000000     0.500000000000    -0.096      
C        C      0.184550000000     0.438750000000     0.500000000000    -0.096      
C        C      0.204700000000     0.469850000000     0.500000000000    -0.096      
C        C      0.272800000000     0.372300000000     0.500000000000    -0.096      
C        C      0.276850000000     0.345150000000     0.500000000000    -0.096      
C        C      0.296750000000     0.309500000000     0.500000000000    -0.096      
C        C      0.314800000000     0.294000000000     0.500000000000    -0.096      
C        C      0.254200000000     0.315450000000     0.500000000000    -0.096      
C        C      0.265150000000     0.295300000000     0.500000000000    -0.096      
C        C      0.099500000000     0.227200000000     0.500000000000    -0.096      
C        C      0.068300000000     0.223150000000     0.500000000000    -0.096      
C        C      0.012750000000     0.203250000000     0.500000000000    -0.096      
C        C      0.479200000000     0.185200000000     0.500000000000    -0.096      
C        C      0.061250000000     0.245800000000     0.500000000000    -0.096      
C        C      0.030150000000     0.234850000000     0.500000000000    -0.096      
C        C      0.372300000000     0.099500000000     0.500000000000    -0.096      
C        C      0.345150000000     0.068300000000     0.500000000000    -0.096      
C        C      0.309500000000     0.012750000000     0.500000000000    -0.096      
C        C      0.294000000000     0.479200000000     0.500000000000    -0.096      
C        C      0.315450000000     0.061250000000     0.500000000000    -0.096      
C        C      0.295300000000     0.030150000000     0.500000000000    -0.096      
C        C      0.227200000000     0.127700000000     0.500000000000    -0.096      
C        C      0.223150000000     0.154850000000     0.500000000000    -0.096      
C        C      0.203250000000     0.190500000000     0.500000000000    -0.096      
C        C      0.185200000000     0.206000000000     0.500000000000    -0.096      
C        C      0.245800000000     0.184550000000     0.500000000000    -0.096      
C        C      0.234850000000     0.204700000000     0.500000000000    -0.096      
C        C      0.400500000000     0.272800000000     0.500000000000    -0.096      
C        C      0.431700000000     0.276850000000     0.500000000000    -0.096      
C        C      0.487250000000     0.296750000000     0.500000000000    -0.096      
C        C      0.020800000000     0.314800000000     0.500000000000    -0.096      
C        C      0.438750000000     0.254200000000     0.500000000000    -0.096      
C        C      0.469850000000     0.265150000000     0.500000000000    -0.096      
C        C      0.330375000000     0.591255000000     0.085390000000    -0.096      
C        C      0.323250000000     0.596700000000     0.134250000000    -0.096      
C        C      0.336650000000     0.590700000000     0.172420000000    -0.096      
C        C      0.303200000000     0.607400000000     0.141900000000    -0.096      
C        C      0.328150000000     0.593700000000     0.217980000000    -0.096      
C        C      0.295200000000     0.610650000000     0.187370000000    -0.096      
C        C      0.307100000000     0.603250000000     0.225570000000    -0.096      
C        C      0.408745000000     0.739120000000     0.085390000000    -0.096      
C        C      0.403300000000     0.726550000000     0.134250000000    -0.096      
C        C      0.409300000000     0.745950000000     0.172420000000    -0.096      
C        C      0.392600000000     0.695800000000     0.141900000000    -0.096      
C        C      0.406300000000     0.734450000000     0.217980000000    -0.096      
C        C      0.389350000000     0.684550000000     0.187370000000    -0.096      
C        C      0.396750000000     0.703850000000     0.225570000000    -0.096      
C        C      0.260880000000     0.669625000000     0.085390000000    -0.096      
C        C      0.273450000000     0.676750000000     0.134250000000    -0.096      
C        C      0.254050000000     0.663350000000     0.172420000000    -0.096      
C        C      0.304200000000     0.696800000000     0.141900000000    -0.096      
C        C      0.265550000000     0.671850000000     0.217980000000    -0.096      
C        C      0.315450000000     0.704800000000     0.187370000000    -0.096      
C        C      0.296150000000     0.692900000000     0.225570000000    -0.096      
C        C      0.169625000000     0.908745000000     0.085390000000    -0.096      
C        C      0.176750000000     0.903300000000     0.134250000000    -0.096      
C        C      0.163350000000     0.909300000000     0.172420000000    -0.096      
C        C      0.196800000000     0.892600000000     0.141900000000    -0.096      
C        C      0.171850000000     0.906300000000     0.217980000000    -0.096      
C        C      0.204800000000     0.889350000000     0.187370000000    -0.096      
C        C      0.192900000000     0.896750000000     0.225570000000    -0.096      
C        C      0.091255000000     0.760880000000     0.085390000000    -0.096      
C        C      0.096700000000     0.773450000000     0.134250000000    -0.096      
C        C      0.090700000000     0.754050000000     0.172420000000    -0.096      
C        C      0.107400000000     0.804200000000     0.141900000000    -0.096      
C        C      0.093700000000     0.765550000000     0.217980000000    -0.096      
C        C      0.110650000000     0.815450000000     0.187370000000    -0.096      
C        C      0.103250000000     0.796150000000     0.225570000000    -0.096      
C        C      0.239120000000     0.830375000000     0.085390000000    -0.096      
C        C      0.226550000000     0.823250000000     0.134250000000    -0.096      
C        C      0.245950000000     0.836650000000     0.172420000000    -0.096      
C        C      0.195800000000     0.803200000000     0.141900000000    -0.096      
C        C      0.234450000000     0.828150000000     0.217980000000    -0.096      
C        C      0.184550000000     0.795200000000     0.187370000000    -0.096      
C        C      0.203850000000     0.807100000000     0.225570000000    -0.096      
C        C      0.091255000000     0.830375000000     0.414610000000    -0.096      
C        C      0.096700000000     0.823250000000     0.365750000000    -0.096      
C        C      0.090700000000     0.836650000000     0.327580000000    -0.096      
C        C      0.107400000000     0.803200000000     0.358100000000    -0.096      
C        C      0.093700000000     0.828150000000     0.282020000000    -0.096      
C        C      0.110650000000     0.795200000000     0.312630000000    -0.096      
C        C      0.103250000000     0.807100000000     0.274430000000    -0.096      
C        C      0.239120000000     0.908745000000     0.414610000000    -0.096      
C        C      0.226550000000     0.903300000000     0.365750000000    -0.096      
C        C      0.245950000000     0.909300000000     0.327580000000    -0.096      
C        C      0.195800000000     0.892600000000     0.358100000000    -0.096      
C        C      0.234450000000     0.906300000000     0.282020000000    -0.096      
C        C      0.184550000000     0.889350000000     0.312630000000    -0.096      
C        C      0.203850000000     0.896750000000     0.274430000000    -0.096      
C        C      0.169625000000     0.760880000000     0.414610000000    -0.096      
C        C      0.176750000000     0.773450000000     0.365750000000    -0.096      
C        C      0.163350000000     0.754050000000     0.327580000000    -0.096      
C        C      0.196800000000     0.804200000000     0.358100000000    -0.096      
C        C      0.171850000000     0.765550000000     0.282020000000    -0.096      
C        C      0.204800000000     0.815450000000     0.312630000000    -0.096      
C        C      0.192900000000     0.796150000000     0.274430000000    -0.096      
C        C      0.408745000000     0.669625000000     0.414610000000    -0.096      
C        C      0.403300000000     0.676750000000     0.365750000000    -0.096      
C        C      0.409300000000     0.663350000000     0.327580000000    -0.096      
C        C      0.392600000000     0.696800000000     0.358100000000    -0.096      
C        C      0.406300000000     0.671850000000     0.282020000000    -0.096      
C        C      0.389350000000     0.704800000000     0.312630000000    -0.096      
C        C      0.396750000000     0.692900000000     0.274430000000    -0.096      
C        C      0.260880000000     0.591255000000     0.414610000000    -0.096      
C        C      0.273450000000     0.596700000000     0.365750000000    -0.096      
C        C      0.254050000000     0.590700000000     0.327580000000    -0.096      
C        C      0.304200000000     0.607400000000     0.358100000000    -0.096      
C        C      0.265550000000     0.593700000000     0.282020000000    -0.096      
C        C      0.315450000000     0.610650000000     0.312630000000    -0.096      
C        C      0.296150000000     0.603250000000     0.274430000000    -0.096      
C        C      0.330375000000     0.739120000000     0.414610000000    -0.096      
C        C      0.323250000000     0.726550000000     0.365750000000    -0.096      
C        C      0.336650000000     0.745950000000     0.327580000000    -0.096      
C        C      0.303200000000     0.695800000000     0.358100000000    -0.096      
C        C      0.328150000000     0.734450000000     0.282020000000    -0.096      
C        C      0.295200000000     0.684550000000     0.312630000000    -0.096      
C        C      0.307100000000     0.703850000000     0.274430000000    -0.096      
C        C      0.169625000000     0.908745000000     0.914610000000    -0.096      
C        C      0.176750000000     0.903300000000     0.865750000000    -0.096      
C        C      0.163350000000     0.909300000000     0.827580000000    -0.096      
C        C      0.196800000000     0.892600000000     0.858100000000    -0.096      
C        C      0.171850000000     0.906300000000     0.782020000000    -0.096      
C        C      0.204800000000     0.889350000000     0.812630000000    -0.096      
C        C      0.192900000000     0.896750000000     0.774430000000    -0.096      
C        C      0.091255000000     0.760880000000     0.914610000000    -0.096      
C        C      0.096700000000     0.773450000000     0.865750000000    -0.096      
C        C      0.090700000000     0.754050000000     0.827580000000    -0.096      
C        C      0.107400000000     0.804200000000     0.858100000000    -0.096      
C        C      0.093700000000     0.765550000000     0.782020000000    -0.096      
C        C      0.110650000000     0.815450000000     0.812630000000    -0.096      
C        C      0.103250000000     0.796150000000     0.774430000000    -0.096      
C        C      0.239120000000     0.830375000000     0.914610000000    -0.096      
C        C      0.226550000000     0.823250000000     0.865750000000    -0.096      
C        C      0.245950000000     0.836650000000     0.827580000000    -0.096      
C        C      0.195800000000     0.803200000000     0.858100000000    -0.096      
C        C      0.234450000000     0.828150000000     0.782020000000    -0.096      
C        C      0.184550000000     0.795200000000     0.812630000000    -0.096      
C        C      0.203850000000     0.807100000000     0.774430000000    -0.096      
C        C      0.330375000000     0.591255000000     0.914610000000    -0.096      
C        C      0.323250000000     0.596700000000     0.865750000000    -0.096      
C        C      0.336650000000     0.590700000000     0.827580000000    -0.096      
C        C      0.303200000000     0.607400000000     0.858100000000    -0.096      
C        C      0.328150000000     0.593700000000     0.782020000000    -0.096      
C        C      0.295200000000     0.610650000000     0.812630000000    -0.096      
C        C      0.307100000000     0.603250000000     0.774430000000    -0.096      
C        C      0.408745000000     0.739120000000     0.914610000000    -0.096      
C        C      0.403300000000     0.726550000000     0.865750000000    -0.096      
C        C      0.409300000000     0.745950000000     0.827580000000    -0.096      
C        C      0.392600000000     0.695800000000     0.858100000000    -0.096      
C        C      0.406300000000     0.734450000000     0.782020000000    -0.096      
C        C      0.389350000000     0.684550000000     0.812630000000    -0.096      
C        C      0.396750000000     0.703850000000     0.774430000000    -0.096      
C        C      0.260880000000     0.669625000000     0.914610000000    -0.096      
C        C      0.273450000000     0.676750000000     0.865750000000    -0.096      
C        C      0.254050000000     0.663350000000     0.827580000000    -0.096      
C        C      0.304200000000     0.696800000000     0.858100000000    -0.096      
C        C      0.265550000000     0.671850000000     0.782020000000    -0.096      
C        C      0.315450000000     0.704800000000     0.812630000000    -0.096      
C        C      0.296150000000     0.692900000000     0.774430000000    -0.096      
C        C      0.408745000000     0.669625000000     0.585390000000    -0.096      
C        C      0.403300000000     0.676750000000     0.634250000000    -0.096      
C        C      0.409300000000     0.663350000000     0.672420000000    -0.096      
C        C      0.392600000000     0.696800000000     0.641900000000    -0.096      
C        C      0.406300000000     0.671850000000     0.717980000000    -0.096      
C        C      0.389350000000     0.704800000000     0.687370000000    -0.096      
C        C      0.396750000000     0.692900000000     0.725570000000    -0.096      
C        C      0.260880000000     0.591255000000     0.585390000000    -0.096      
C        C      0.273450000000     0.596700000000     0.634250000000    -0.096      
C        C      0.254050000000     0.590700000000     0.672420000000    -0.096      
C        C      0.304200000000     0.607400000000     0.641900000000    -0.096      
C        C      0.265550000000     0.593700000000     0.717980000000    -0.096      
C        C      0.315450000000     0.610650000000     0.687370000000    -0.096      
C        C      0.296150000000     0.603250000000     0.725570000000    -0.096      
C        C      0.330375000000     0.739120000000     0.585390000000    -0.096      
C        C      0.323250000000     0.726550000000     0.634250000000    -0.096      
C        C      0.336650000000     0.745950000000     0.672420000000    -0.096      
C        C      0.303200000000     0.695800000000     0.641900000000    -0.096      
C        C      0.328150000000     0.734450000000     0.717980000000    -0.096      
C        C      0.295200000000     0.684550000000     0.687370000000    -0.096      
C        C      0.307100000000     0.703850000000     0.725570000000    -0.096      
C        C      0.091255000000     0.830375000000     0.585390000000    -0.096      
C        C      0.096700000000     0.823250000000     0.634250000000    -0.096      
C        C      0.090700000000     0.836650000000     0.672420000000    -0.096      
C        C      0.107400000000     0.803200000000     0.641900000000    -0.096      
C        C      0.093700000000     0.828150000000     0.717980000000    -0.096      
C        C      0.110650000000     0.795200000000     0.687370000000    -0.096      
C        C      0.103250000000     0.807100000000     0.725570000000    -0.096      
C        C      0.239120000000     0.908745000000     0.585390000000    -0.096      
C        C      0.226550000000     0.903300000000     0.634250000000    -0.096      
C        C      0.245950000000     0.909300000000     0.672420000000    -0.096      
C        C      0.195800000000     0.892600000000     0.641900000000    -0.096      
C        C      0.234450000000     0.906300000000     0.717980000000    -0.096      
C        C      0.184550000000     0.889350000000     0.687370000000    -0.096      
C        C      0.203850000000     0.896750000000     0.725570000000    -0.096      
C        C      0.169625000000     0.760880000000     0.585390000000    -0.096      
C        C      0.176750000000     0.773450000000     0.634250000000    -0.096      
C        C      0.163350000000     0.754050000000     0.672420000000    -0.096      
C        C      0.196800000000     0.804200000000     0.641900000000    -0.096      
C        C      0.171850000000     0.765550000000     0.717980000000    -0.096      
C        C      0.204800000000     0.815450000000     0.687370000000    -0.096      
C        C      0.192900000000     0.796150000000     0.725570000000    -0.096      
C        C      0.400500000000     0.627700000000     0.000000000000    -0.096      
C        C      0.431700000000     0.654850000000     0.000000000000    -0.096      
C        C      0.487250000000     0.690500000000     0.000000000000    -0.096      
C        C      0.020800000000     0.706000000000     0.000000000000    -0.096      
C        C      0.438750000000     0.684550000000     0.000000000000    -0.096      
C        C      0.469850000000     0.704700000000     0.000000000000    -0.096      
C        C      0.372300000000     0.772800000000     0.000000000000    -0.096      
C        C      0.345150000000     0.776850000000     0.000000000000    -0.096      
C        C      0.309500000000     0.796750000000     0.000000000000    -0.096      
C        C      0.294000000000     0.814800000000     0.000000000000    -0.096      
C        C      0.315450000000     0.754200000000     0.000000000000    -0.096      
C        C      0.295300000000     0.765150000000     0.000000000000    -0.096      
C        C      0.227200000000     0.599500000000     0.000000000000    -0.096      
C        C      0.223150000000     0.568300000000     0.000000000000    -0.096      
C        C      0.203250000000     0.512750000000     0.000000000000    -0.096      
C        C      0.185200000000     0.979200000000     0.000000000000    -0.096      
C        C      0.245800000000     0.561250000000     0.000000000000    -0.096      
C        C      0.234850000000     0.530150000000     0.000000000000    -0.096      
C        C      0.099500000000     0.872300000000     0.000000000000    -0.096      
C        C      0.068300000000     0.845150000000     0.000000000000    -0.096      
C        C      0.012750000000     0.809500000000     0.000000000000    -0.096      
C        C      0.479200000000     0.794000000000     0.000000000000    -0.096      
C        C      0.061250000000     0.815450000000     0.000000000000    -0.096      
C        C      0.030150000000     0.795300000000     0.000000000000    -0.096      
C        C      0.127700000000     0.727200000000     0.000000000000    -0.096      
C        C      0.154850000000     0.723150000000     0.000000000000    -0.096      
C        C      0.190500000000     0.703250000000     0.000000000000    -0.096      
C        C      0.206000000000     0.685200000000     0.000000000000    -0.096      
C        C      0.184550000000     0.745800000000     0.000000000000    -0.096      
C        C      0.204700000000     0.734850000000     0.000000000000    -0.096      
C        C      0.272800000000     0.900500000000     0.000000000000    -0.096      
C        C      0.276850000000     0.931700000000     0.000000000000    -0.096      
C        C      0.296750000000     0.987250000000     0.000000000000    -0.096      
C        C      0.314800000000     0.520800000000     0.000000000000    -0.096      
C        C      0.254200000000     0.938750000000     0.000000000000    -0.096      
C        C      0.265150000000     0.969850000000     0.000000000000    -0.096      
C        C      0.127700000000     0.900500000000     0.500000000000    -0.096      
C        C      0.154850000000     0.931700000000     0.500000000000    -0.096      
C        C      0.190500000000     0.987250000000     0.500000000000    -0.096      
C        C      0.206000000000     0.520800000000     0.500000000000    -0.096      
C        C      0.184550000000     0.938750000000     0.500000000000    -0.096      
C        C      0.204700000000     0.969850000000     0.500000000000    -0.096      
C        C      0.272800000000     0.872300000000     0.500000000000    -0.096      
C        C      0.276850000000     0.845150000000     0.500000000000    -0.096      
C        C      0.296750000000     0.809500000000     0.500000000000    -0.096      
C        C      0.314800000000     0.794000000000     0.500000000000    -0.096      
C        C      0.254200000000     0.815450000000     0.500000000000    -0.096      
C        C      0.265150000000     0.795300000000     0.500000000000    -0.096      
C        C      0.099500000000     0.727200000000     0.500000000000    -0.096      
C        C      0.068300000000     0.723150000000     0.500000000000    -0.096      
C        C      0.012750000000     0.703250000000     0.500000000000    -0.096      
C        C      0.479200000000     0.685200000000     0.500000000000    -0.096      
C        C      0.061250000000     0.745800000000     0.500000000000    -0.096      
C        C      0.030150000000     0.734850000000     0.500000000000    -0.096      
C        C      0.372300000000     0.599500000000     0.500000000000    -0.096      
C        C      0.345150000000     0.568300000000     0.500000000000    -0.096      
C        C      0.309500000000     0.512750000000     0.500000000000    -0.096      
C        C      0.294000000000     0.979200000000     0.500000000000    -0.096      
C        C      0.315450000000     0.561250000000     0.500000000000    -0.096      
C        C      0.295300000000     0.530150000000     0.500000000000    -0.096      
C        C      0.227200000000     0.627700000000     0.500000000000    -0.096      
C        C      0.223150000000     0.654850000000     0.500000000000    -0.096      
C        C      0.203250000000     0.690500000000     0.500000000000    -0.096      
C        C      0.185200000000     0.706000000000     0.500000000000    -0.096      
C        C      0.245800000000     0.684550000000     0.500000000000    -0.096      
C        C      0.234850000000     0.704700000000     0.500000000000    -0.096      
C        C      0.400500000000     0.772800000000     0.500000000000    -0.096      
C        C      0.431700000000     0.776850000000     0.500000000000    -0.096      
C        C      0.487250000000     0.796750000000     0.500000000000    -0.096      
C        C      0.020800000000     0.814800000000     0.500000000000    -0.096      
C        C      0.438750000000     0.754200000000     0.500000000000    -0.096      
C        C      0.469850000000     0.765150000000     0.500000000000    -0.096      
C        C      0.830375000000     0.091255000000     0.085390000000    -0.096      
C        C      0.823250000000     0.096700000000     0.134250000000    -0.096      
C        C      0.836650000000     0.090700000000     0.172420000000    -0.096      
C        C      0.803200000000     0.107400000000     0.141900000000    -0.096      
C        C      0.828150000000     0.093700000000     0.217980000000    -0.096      
C        C      0.795200000000     0.110650000000     0.187370000000    -0.096      
C        C      0.807100000000     0.103250000000     0.225570000000    -0.096      
C        C      0.908745000000     0.239120000000     0.085390000000    -0.096      
C        C      0.903300000000     0.226550000000     0.134250000000    -0.096      
C        C      0.909300000000     0.245950000000     0.172420000000    -0.096      
C        C      0.892600000000     0.195800000000     0.141900000000    -0.096      
C        C      0.906300000000     0.234450000000     0.217980000000    -0.096      
C        C      0.889350000000     0.184550000000     0.187370000000    -0.096      
C        C      0.896750000000     0.203850000000     0.225570000000    -0.096      
C        C      0.760880000000     0.169625000000     0.085390000000    -0.096      
C        C      0.773450000000     0.176750000000     0.134250000000    -0.096      
C        C      0.754050000000     0.163350000000     0.172420000000    -0.096      
C        C      0.804200000000     0.196800000000     0.141900000000    -0.096      
C        C      0.765550000000     0.171850000000     0.217980000000    -0.096      
C        C      0.815450000000     0.204800000000     0.187370000000    -0.096      
C        C      0.796150000000     0.192900000000     0.225570000000    -0.096      
C        C      0.669625000000     0.408745000000     0.085390000000    -0.096      
C        C      0.676750000000     0.403300000000     0.134250000000    -0.096      
C        C      0.663350000000     0.409300000000     0.172420000000    -0.096      
C        C      0.696800000000     0.392600000000     0.141900000000    -0.096      
C        C      0.671850000000     0.406300000000     0.217980000000    -0.096      
C        C      0.704800000000     0.389350000000     0.187370000000    -0.096      
C        C      0.692900000000     0.396750000000     0.225570000000    -0.096      
C        C      0.591255000000     0.260880000000     0.085390000000    -0.096      
C        C      0.596700000000     0.273450000000     0.134250000000    -0.096      
C        C      0.590700000000     0.254050000000     0.172420000000    -0.096      
C        C      0.607400000000     0.304200000000     0.141900000000    -0.096      
C        C      0.593700000000     0.265550000000     0.217980000000    -0.096      
C        C      0.610650000000     0.315450000000     0.187370000000    -0.096      
C        C      0.603250000000     0.296150000000     0.225570000000    -0.096      
C        C      0.739120000000     0.330375000000     0.085390000000    -0.096      
C        C      0.726550000000     0.323250000000     0.134250000000    -0.096      
C        C      0.745950000000     0.336650000000     0.172420000000    -0.096      
C        C      0.695800000000     0.303200000000     0.141900000000    -0.096      
C        C      0.734450000000     0.328150000000     0.217980000000    -0.096      
C        C      0.684550000000     0.295200000000     0.187370000000    -0.096      
C        C      0.703850000000     0.307100000000     0.225570000000    -0.096      
C        C      0.591255000000     0.330375000000     0.414610000000    -0.096      
C        C      0.596700000000     0.323250000000     0.365750000000    -0.096      
C        C      0.590700000000     0.336650000000     0.327580000000    -0.096      
C        C      0.607400000000     0.303200000000     0.358100000000    -0.096      
C        C      0.593700000000     0.328150000000     0.282020000000    -0.096      
C        C      0.610650000000     0.295200000000     0.312630000000    -0.096      
C        C      0.603250000000     0.307100000000     0.274430000000    -0.096      
C        C      0.739120000000     0.408745000000     0.414610000000    -0.096      
C        C      0.726550000000     0.403300000000     0.365750000000    -0.096      
C        C      0.745950000000     0.409300000000     0.327580000000    -0.096      
C        C      0.695800000000     0.392600000000     0.358100000000    -0.096      
C        C      0.734450000000     0.406300000000     0.282020000000    -0.096      
C        C      0.684550000000     0.389350000000     0.312630000000    -0.096      
C        C      0.703850000000     0.396750000000     0.274430000000    -0.096      
C        C      0.669625000000     0.260880000000     0.414610000000    -0.096      
C        C      0.676750000000     0.273450000000     0.365750000000    -0.096      
C        C      0.663350000000     0.254050000000     0.327580000000    -0.096      
C        C      0.696800000000     0.304200000000     0.358100000000    -0.096      
C        C      0.671850000000     0.265550000000     0.282020000000    -0.096      
C        C      0.704800000000     0.315450000000     0.312630000000    -0.096      
C        C      0.692900000000     0.296150000000     0.274430000000    -0.096      
C        C      0.908745000000     0.169625000000     0.414610000000    -0.096      
C        C      0.903300000000     0.176750000000     0.365750000000    -0.096      
C        C      0.909300000000     0.163350000000     0.327580000000    -0.096      
C        C      0.892600000000     0.196800000000     0.358100000000    -0.096      
C        C      0.906300000000     0.171850000000     0.282020000000    -0.096      
C        C      0.889350000000     0.204800000000     0.312630000000    -0.096      
C        C      0.896750000000     0.192900000000     0.274430000000    -0.096      
C        C      0.760880000000     0.091255000000     0.414610000000    -0.096      
C        C      0.773450000000     0.096700000000     0.365750000000    -0.096      
C        C      0.754050000000     0.090700000000     0.327580000000    -0.096      
C        C      0.804200000000     0.107400000000     0.358100000000    -0.096      
C        C      0.765550000000     0.093700000000     0.282020000000    -0.096      
C        C      0.815450000000     0.110650000000     0.312630000000    -0.096      
C        C      0.796150000000     0.103250000000     0.274430000000    -0.096      
C        C      0.830375000000     0.239120000000     0.414610000000    -0.096      
C        C      0.823250000000     0.226550000000     0.365750000000    -0.096      
C        C      0.836650000000     0.245950000000     0.327580000000    -0.096      
C        C      0.803200000000     0.195800000000     0.358100000000    -0.096      
C        C      0.828150000000     0.234450000000     0.282020000000    -0.096      
C        C      0.795200000000     0.184550000000     0.312630000000    -0.096      
C        C      0.807100000000     0.203850000000     0.274430000000    -0.096      
C        C      0.669625000000     0.408745000000     0.914610000000    -0.096      
C        C      0.676750000000     0.403300000000     0.865750000000    -0.096      
C        C      0.663350000000     0.409300000000     0.827580000000    -0.096      
C        C      0.696800000000     0.392600000000     0.858100000000    -0.096      
C        C      0.671850000000     0.406300000000     0.782020000000    -0.096      
C        C      0.704800000000     0.389350000000     0.812630000000    -0.096      
C        C      0.692900000000     0.396750000000     0.774430000000    -0.096      
C        C      0.591255000000     0.260880000000     0.914610000000    -0.096      
C        C      0.596700000000     0.273450000000     0.865750000000    -0.096      
C        C      0.590700000000     0.254050000000     0.827580000000    -0.096      
C        C      0.607400000000     0.304200000000     0.858100000000    -0.096      
C        C      0.593700000000     0.265550000000     0.782020000000    -0.096      
C        C      0.610650000000     0.315450000000     0.812630000000    -0.096      
C        C      0.603250000000     0.296150000000     0.774430000000    -0.096      
C        C      0.739120000000     0.330375000000     0.914610000000    -0.096      
C        C      0.726550000000     0.323250000000     0.865750000000    -0.096      
C        C      0.745950000000     0.336650000000     0.827580000000    -0.096      
C        C      0.695800000000     0.303200000000     0.858100000000    -0.096      
C        C      0.734450000000     0.328150000000     0.782020000000    -0.096      
C        C      0.684550000000     0.295200000000     0.812630000000    -0.096      
C        C      0.703850000000     0.307100000000     0.774430000000    -0.096      
C        C      0.830375000000     0.091255000000     0.914610000000    -0.096      
C        C      0.823250000000     0.096700000000     0.865750000000    -0.096      
C        C      0.836650000000     0.090700000000     0.827580000000    -0.096      
C        C      0.803200000000     0.107400000000     0.858100000000    -0.096      
C        C      0.828150000000     0.093700000000     0.782020000000    -0.096      
C        C      0.795200000000     0.110650000000     0.812630000000    -0.096      
C        C      0.807100000000     0.103250000000     0.774430000000    -0.096      
C        C      0.908745000000     0.239120000000     0.914610000000    -0.096      
C        C      0.903300000000     0.226550000000     0.865750000000    -0.096      
C        C      0.909300000000     0.245950000000     0.827580000000    -0.096      
C        C      0.892600000000     0.195800000000     0.858100000000    -0.096      
C        C      0.906300000000     0.234450000000     0.782020000000    -0.096      
C        C      0.889350000000     0.184550000000     0.812630000000    -0.096      
C        C      0.896750000000     0.203850000000     0.774430000000    -0.096      
C        C      0.760880000000     0.169625000000     0.914610000000    -0.096      
C        C      0.773450000000     0.176750000000     0.865750000000    -0.096      
C        C      0.754050000000     0.163350000000     0.827580000000    -0.096      
C        C      0.804200000000     0.196800000000     0.858100000000    -0.096      
C        C      0.765550000000     0.171850000000     0.782020000000    -0.096      
C        C      0.815450000000     0.204800000000     0.812630000000    -0.096      
C        C      0.796150000000     0.192900000000     0.774430000000    -0.096      
C        C      0.908745000000     0.169625000000     0.585390000000    -0.096      
C        C      0.903300000000     0.176750000000     0.634250000000    -0.096      
C        C      0.909300000000     0.163350000000     0.672420000000    -0.096      
C        C      0.892600000000     0.196800000000     0.641900000000    -0.096      
C        C      0.906300000000     0.171850000000     0.717980000000    -0.096      
C        C      0.889350000000     0.204800000000     0.687370000000    -0.096      
C        C      0.896750000000     0.192900000000     0.725570000000    -0.096      
C        C      0.760880000000     0.091255000000     0.585390000000    -0.096      
C        C      0.773450000000     0.096700000000     0.634250000000    -0.096      
C        C      0.754050000000     0.090700000000     0.672420000000    -0.096      
C        C      0.804200000000     0.107400000000     0.641900000000    -0.096      
C        C      0.765550000000     0.093700000000     0.717980000000    -0.096      
C        C      0.815450000000     0.110650000000     0.687370000000    -0.096      
C        C      0.796150000000     0.103250000000     0.725570000000    -0.096      
C        C      0.830375000000     0.239120000000     0.585390000000    -0.096      
C        C      0.823250000000     0.226550000000     0.634250000000    -0.096      
C        C      0.836650000000     0.245950000000     0.672420000000    -0.096      
C        C      0.803200000000     0.195800000000     0.641900000000    -0.096      
C        C      0.828150000000     0.234450000000     0.717980000000    -0.096      
C        C      0.795200000000     0.184550000000     0.687370000000    -0.096      
C        C      0.807100000000     0.203850000000     0.725570000000    -0.096      
C        C      0.591255000000     0.330375000000     0.585390000000    -0.096      
C        C      0.596700000000     0.323250000000     0.634250000000    -0.096      
C        C      0.590700000000     0.336650000000     0.672420000000    -0.096      
C        C      0.607400000000     0.303200000000     0.641900000000    -0.096      
C        C      0.593700000000     0.328150000000     0.717980000000    -0.096      
C        C      0.610650000000     0.295200000000     0.687370000000    -0.096      
C        C      0.603250000000     0.307100000000     0.725570000000    -0.096      
C        C      0.739120000000     0.408745000000     0.585390000000    -0.096      
C        C      0.726550000000     0.403300000000     0.634250000000    -0.096      
C        C      0.745950000000     0.409300000000     0.672420000000    -0.096      
C        C      0.695800000000     0.392600000000     0.641900000000    -0.096      
C        C      0.734450000000     0.406300000000     0.717980000000    -0.096      
C        C      0.684550000000     0.389350000000     0.687370000000    -0.096      
C        C      0.703850000000     0.396750000000     0.725570000000    -0.096      
C        C      0.669625000000     0.260880000000     0.585390000000    -0.096      
C        C      0.676750000000     0.273450000000     0.634250000000    -0.096      
C        C      0.663350000000     0.254050000000     0.672420000000    -0.096      
C        C      0.696800000000     0.304200000000     0.641900000000    -0.096      
C        C      0.671850000000     0.265550000000     0.717980000000    -0.096      
C        C      0.704800000000     0.315450000000     0.687370000000    -0.096      
C        C      0.692900000000     0.296150000000     0.725570000000    -0.096      
C        C      0.900500000000     0.127700000000     0.000000000000    -0.096      
C        C      0.931700000000     0.154850000000     0.000000000000    -0.096      
C        C      0.987250000000     0.190500000000     0.000000000000    -0.096      
C        C      0.520800000000     0.206000000000     0.000000000000    -0.096      
C        C      0.938750000000     0.184550000000     0.000000000000    -0.096      
C        C      0.969850000000     0.204700000000     0.000000000000    -0.096      
C        C      0.872300000000     0.272800000000     0.000000000000    -0.096      
C        C      0.845150000000     0.276850000000     0.000000000000    -0.096      
C        C      0.809500000000     0.296750000000     0.000000000000    -0.096      
C        C      0.794000000000     0.314800000000     0.000000000000    -0.096      
C        C      0.815450000000     0.254200000000     0.000000000000    -0.096      
C        C      0.795300000000     0.265150000000     0.000000000000    -0.096      
C        C      0.727200000000     0.099500000000     0.000000000000    -0.096      
C        C      0.723150000000     0.068300000000     0.000000000000    -0.096      
C        C      0.703250000000     0.012750000000     0.000000000000    -0.096      
C        C      0.685200000000     0.479200000000     0.000000000000    -0.096      
C        C      0.745800000000     0.061250000000     0.000000000000    -0.096      
C        C      0.734850000000     0.030150000000     0.000000000000    -0.096      
C        C      0.599500000000     0.372300000000     0.000000000000    -0.096      
C        C      0.568300000000     0.345150000000     0.000000000000    -0.096      
C        C      0.512750000000     0.309500000000     0.000000000000    -0.096      
C        C      0.979200000000     0.294000000000     0.000000000000    -0.096      
C        C      0.561250000000     0.315450000000     0.000000000000    -0.096      
C        C      0.530150000000     0.295300000000     0.000000000000    -0.096      
C        C      0.627700000000     0.227200000000     0.000000000000    -0.096      
C        C      0.654850000000     0.223150000000     0.000000000000    -0.096      
C        C      0.690500000000     0.203250000000     0.000000000000    -0.096      
C        C      0.706000000000     0.185200000000     0.000000000000    -0.096      
C        C      0.684550000000     0.245800000000     0.000000000000    -0.096      
C        C      0.704700000000     0.234850000000     0.000000000000    -0.096      
C        C      0.772800000000     0.400500000000     0.000000000000    -0.096      
C        C      0.776850000000     0.431700000000     0.000000000000    -0.096      
C        C      0.796750000000     0.487250000000     0.000000000000    -0.096      
C        C      0.814800000000     0.020800000000     0.000000000000    -0.096      
C        C      0.754200000000     0.438750000000     0.000000000000    -0.096      
C        C      0.765150000000     0.469850000000     0.000000000000    -0.096      
C        C      0.627700000000     0.400500000000     0.500000000000    -0.096      
C        C      0.654850000000     0.431700000000     0.500000000000    -0.096      
C        C      0.690500000000     0.487250000000     0.500000000000    -0.096      
C        C      0.706000000000     0.020800000000     0.500000000000    -0.096      
C        C      0.684550000000     0.438750000000     0.500000000000    -0.096      
C        C      0.704700000000     0.469850000000     0.500000000000    -0.096      
C        C      0.772800000000     0.372300000000     0.500000000000    -0.096      
C        C      0.776850000000     0.345150000000     0.500000000000    -0.096      
C        C      0.796750000000     0.309500000000     0.500000000000    -0.096      
C        C      0.814800000000     0.294000000000     0.500000000000    -0.096      
C        C      0.754200000000     0.315450000000     0.500000000000    -0.096      
C        C      0.765150000000     0.295300000000     0.500000000000    -0.096      
C        C      0.599500000000     0.227200000000     0.500000000000    -0.096      
C        C      0.568300000000     0.223150000000     0.500000000000    -0.096      
C        C      0.512750000000     0.203250000000     0.500000000000    -0.096      
C        C      0.979200000000     0.185200000000     0.500000000000    -0.096      
C        C      0.561250000000     0.245800000000     0.500000000000    -0.096      
C        C      0.530150000000     0.234850000000     0.500000000000    -0.096      
C        C      0.872300000000     0.099500000000     0.500000000000    -0.096      
C        C      0.845150000000     0.068300000000     0.500000000000    -0.096      
C        C      0.809500000000     0.012750000000     0.500000000000    -0.096      
C        C      0.794000000000     0.479200000000     0.500000000000    -0.096      
C        C      0.815450000000     0.061250000000     0.500000000000    -0.096      
C        C      0.795300000000     0.030150000000     0.500000000000    -0.096      
C        C      0.727200000000     0.127700000000     0.500000000000    -0.096      
C        C      0.723150000000     0.154850000000     0.500000000000    -0.096      
C        C      0.703250000000     0.190500000000     0.500000000000    -0.096      
C        C      0.685200000000     0.206000000000     0.500000000000    -0.096      
C        C      0.745800000000     0.184550000000     0.500000000000    -0.096      
C        C      0.734850000000     0.204700000000     0.500000000000    -0.096      
C        C      0.900500000000     0.272800000000     0.500000000000    -0.096      
C        C      0.931700000000     0.276850000000     0.500000000000    -0.096      
C        C      0.987250000000     0.296750000000     0.500000000000    -0.096      
C        C      0.520800000000     0.314800000000     0.500000000000    -0.096      
C        C      0.938750000000     0.254200000000     0.500000000000    -0.096      
C        C      0.969850000000     0.265150000000     0.500000000000    -0.096      
C        C      0.830375000000     0.591255000000     0.085390000000    -0.096      
C        C      0.823250000000     0.596700000000     0.134250000000    -0.096      
C        C      0.836650000000     0.590700000000     0.172420000000    -0.096      
C        C      0.803200000000     0.607400000000     0.141900000000    -0.096      
C        C      0.828150000000     0.593700000000     0.217980000000    -0.096      
C        C      0.795200000000     0.610650000000     0.187370000000    -0.096      
C        C      0.807100000000     0.603250000000     0.225570000000    -0.096      
C        C      0.908745000000     0.739120000000     0.085390000000    -0.096      
C        C      0.903300000000     0.726550000000     0.134250000000    -0.096      
C        C      0.909300000000     0.745950000000     0.172420000000    -0.096      
C        C      0.892600000000     0.695800000000     0.141900000000    -0.096      
C        C      0.906300000000     0.734450000000     0.217980000000    -0.096      
C        C      0.889350000000     0.684550000000     0.187370000000    -0.096      
C        C      0.896750000000     0.703850000000     0.225570000000    -0.096      
C        C      0.760880000000     0.669625000000     0.085390000000    -0.096      
C        C      0.773450000000     0.676750000000     0.134250000000    -0.096      
C        C      0.754050000000     0.663350000000     0.172420000000    -0.096      
C        C      0.804200000000     0.696800000000     0.141900000000    -0.096      
C        C      0.765550000000     0.671850000000     0.217980000000    -0.096      
C        C      0.815450000000     0.704800000000     0.187370000000    -0.096      
C        C      0.796150000000     0.692900000000     0.225570000000    -0.096      
C        C      0.669625000000     0.908745000000     0.085390000000    -0.096      
C        C      0.676750000000     0.903300000000     0.134250000000    -0.096      
C        C      0.663350000000     0.909300000000     0.172420000000    -0.096      
C        C      0.696800000000     0.892600000000     0.141900000000    -0.096      
C        C      0.671850000000     0.906300000000     0.217980000000    -0.096      
C        C      0.704800000000     0.889350000000     0.187370000000    -0.096      
C        C      0.692900000000     0.896750000000     0.225570000000    -0.096      
C        C      0.591255000000     0.760880000000     0.085390000000    -0.096      
C        C      0.596700000000     0.773450000000     0.134250000000    -0.096      
C        C      0.590700000000     0.754050000000     0.172420000000    -0.096      
C        C      0.607400000000     0.804200000000     0.141900000000    -0.096      
C        C      0.593700000000     0.765550000000     0.217980000000    -0.096      
C        C      0.610650000000     0.815450000000     0.187370000000    -0.096      
C        C      0.603250000000     0.796150000000     0.225570000000    -0.096      
C        C      0.739120000000     0.830375000000     0.085390000000    -0.096      
C        C      0.726550000000     0.823250000000     0.134250000000    -0.096      
C        C      0.745950000000     0.836650000000     0.172420000000    -0.096      
C        C      0.695800000000     0.803200000000     0.141900000000    -0.096      
C        C      0.734450000000     0.828150000000     0.217980000000    -0.096      
C        C      0.684550000000     0.795200000000     0.187370000000    -0.096      
C        C      0.703850000000     0.807100000000     0.225570000000    -0.096      
C        C      0.591255000000     0.830375000000     0.414610000000    -0.096      
C        C      0.596700000000     0.823250000000     0.365750000000    -0.096      
C        C      0.590700000000     0.836650000000     0.327580000000    -0.096      
C        C      0.607400000000     0.803200000000     0.358100000000    -0.096      
C        C      0.593700000000     0.828150000000     0.282020000000    -0.096      
C        C      0.610650000000     0.795200000000     0.312630000000    -0.096      
C        C      0.603250000000     0.807100000000     0.274430000000    -0.096      
C        C      0.739120000000     0.908745000000     0.414610000000    -0.096      
C        C      0.726550000000     0.903300000000     0.365750000000    -0.096      
C        C      0.745950000000     0.909300000000     0.327580000000    -0.096      
C        C      0.695800000000     0.892600000000     0.358100000000    -0.096      
C        C      0.734450000000     0.906300000000     0.282020000000    -0.096      
C        C      0.684550000000     0.889350000000     0.312630000000    -0.096      
C        C      0.703850000000     0.896750000000     0.274430000000    -0.096      
C        C      0.669625000000     0.760880000000     0.414610000000    -0.096      
C        C      0.676750000000     0.773450000000     0.365750000000    -0.096      
C        C      0.663350000000     0.754050000000     0.327580000000    -0.096      
C        C      0.696800000000     0.804200000000     0.358100000000    -0.096      
C        C      0.671850000000     0.765550000000     0.282020000000    -0.096      
C        C      0.704800000000     0.815450000000     0.312630000000    -0.096      
C        C      0.692900000000     0.796150000000     0.274430000000    -0.096      
C        C      0.908745000000     0.669625000000     0.414610000000    -0.096      
C        C      0.903300000000     0.676750000000     0.365750000000    -0.096      
C        C      0.909300000000     0.663350000000     0.327580000000    -0.096      
C        C      0.892600000000     0.696800000000     0.358100000000    -0.096      
C        C      0.906300000000     0.671850000000     0.282020000000    -0.096      
C        C      0.889350000000     0.704800000000     0.312630000000    -0.096      
C        C      0.896750000000     0.692900000000     0.274430000000    -0.096      
C        C      0.760880000000     0.591255000000     0.414610000000    -0.096      
C        C      0.773450000000     0.596700000000     0.365750000000    -0.096      
C        C      0.754050000000     0.590700000000     0.327580000000    -0.096      
C        C      0.804200000000     0.607400000000     0.358100000000    -0.096      
C        C      0.765550000000     0.593700000000     0.282020000000    -0.096      
C        C      0.815450000000     0.610650000000     0.312630000000    -0.096      
C        C      0.796150000000     0.603250000000     0.274430000000    -0.096      
C        C      0.830375000000     0.739120000000     0.414610000000    -0.096      
C        C      0.823250000000     0.726550000000     0.365750000000    -0.096      
C        C      0.836650000000     0.745950000000     0.327580000000    -0.096      
C        C      0.803200000000     0.695800000000     0.358100000000    -0.096      
C        C      0.828150000000     0.734450000000     0.282020000000    -0.096      
C        C      0.795200000000     0.684550000000     0.312630000000    -0.096      
C        C      0.807100000000     0.703850000000     0.274430000000    -0.096      
C        C      0.669625000000     0.908745000000     0.914610000000    -0.096      
C        C      0.676750000000     0.903300000000     0.865750000000    -0.096      
C        C      0.663350000000     0.909300000000     0.827580000000    -0.096      
C        C      0.696800000000     0.892600000000     0.858100000000    -0.096      
C        C      0.671850000000     0.906300000000     0.782020000000    -0.096      
C        C      0.704800000000     0.889350000000     0.812630000000    -0.096      
C        C      0.692900000000     0.896750000000     0.774430000000    -0.096      
C        C      0.591255000000     0.760880000000     0.914610000000    -0.096      
C        C      0.596700000000     0.773450000000     0.865750000000    -0.096      
C        C      0.590700000000     0.754050000000     0.827580000000    -0.096      
C        C      0.607400000000     0.804200000000     0.858100000000    -0.096      
C        C      0.593700000000     0.765550000000     0.782020000000    -0.096      
C        C      0.610650000000     0.815450000000     0.812630000000    -0.096      
C        C      0.603250000000     0.796150000000     0.774430000000    -0.096      
C        C      0.739120000000     0.830375000000     0.914610000000    -0.096      
C        C      0.726550000000     0.823250000000     0.865750000000    -0.096      
C        C      0.745950000000     0.836650000000     0.827580000000    -0.096      
C        C      0.695800000000     0.803200000000     0.858100000000    -0.096      
C        C      0.734450000000     0.828150000000     0.782020000000    -0.096      
C        C      0.684550000000     0.795200000000     0.812630000000    -0.096      
C        C      0.703850000000     0.807100000000     0.774430000000    -0.096      
C        C      0.830375000000     0.591255000000     0.914610000000    -0.096      
C        C      0.823250000000     0.596700000000     0.865750000000    -0.096      
C        C      0.836650000000     0.590700000000     0.827580000000    -0.096      
C        C      0.803200000000     0.607400000000     0.858100000000    -0.096      
C        C      0.828150000000     0.593700000000     0.782020000000    -0.096      
C        C      0.795200000000     0.610650000000     0.812630000000    -0.096      
C        C      0.807100000000     0.603250000000     0.774430000000    -0.096      
C        C      0.908745000000     0.739120000000     0.914610000000    -0.096      
C        C      0.903300000000     0.726550000000     0.865750000000    -0.096      
C        C      0.909300000000     0.745950000000     0.827580000000    -0.096      
C        C      0.892600000000     0.695800000000     0.858100000000    -0.096      
C        C      0.906300000000     0.734450000000     0.782020000000    -0.096      
C        C      0.889350000000     0.684550000000     0.812630000000    -0.096      
C        C      0.896750000000     0.703850000000     0.774430000000    -0.096      
C        C      0.760880000000     0.669625000000     0.914610000000    -0.096      
C        C      0.773450000000     0.676750000000     0.865750000000    -0.096      
C        C      0.754050000000     0.663350000000     0.827580000000    -0.096      
C        C      0.804200000000     0.696800000000     0.858100000000    -0.096      
C        C      0.765550000000     0.671850000000     0.782020000000    -0.096      
C        C      0.815450000000     0.704800000000     0.812630000000    -0.096      
C        C      0.796150000000     0.692900000000     0.774430000000    -0.096      
C        C      0.908745000000     0.669625000000     0.585390000000    -0.096      
C        C      0.903300000000     0.676750000000     0.634250000000    -0.096      
C        C      0.909300000000     0.663350000000     0.672420000000    -0.096      
C        C      0.892600000000     0.696800000000     0.641900000000    -0.096      
C        C      0.906300000000     0.671850000000     0.717980000000    -0.096      
C        C      0.889350000000     0.704800000000     0.687370000000    -0.096      
C        C      0.896750000000     0.692900000000     0.725570000000    -0.096      
C        C      0.760880000000     0.591255000000     0.585390000000    -0.096      
C        C      0.773450000000     0.596700000000     0.634250000000    -0.096      
C        C      0.754050000000     0.590700000000     0.672420000000    -0.096      
C        C      0.804200000000     0.607400000000     0.641900000000    -0.096      
C        C      0.765550000000     0.593700000000     0.717980000000    -0.096      
C        C      0.815450000000     0.610650000000     0.687370000000    -0.096      
C        C      0.796150000000     0.603250000000     0.725570000000    -0.096      
C        C      0.830375000000     0.739120000000     0.585390000000    -0.096      
C        C      0.823250000000     0.726550000000     0.634250000000    -0.096      
C        C      0.836650000000     0.745950000000     0.672420000000    -0.096      
C        C      0.803200000000     0.695800000000     0.641900000000    -0.096      
C        C      0.828150000000     0.734450000000     0.717980000000    -0.096      
C        C      0.795200000000     0.684550000000     0.687370000000    -0.096      
C        C      0.807100000000     0.703850000000     0.725570000000    -0.096      
C        C      0.591255000000     0.830375000000     0.585390000000    -0.096      
C        C      0.596700000000     0.823250000000     0.634250000000    -0.096      
C        C      0.590700000000     0.836650000000     0.672420000000    -0.096      
C        C      0.607400000000     0.803200000000     0.641900000000    -0.096      
C        C      0.593700000000     0.828150000000     0.717980000000    -0.096      
C        C      0.610650000000     0.795200000000     0.687370000000    -0.096      
C        C      0.603250000000     0.807100000000     0.725570000000    -0.096      
C        C      0.739120000000     0.908745000000     0.585390000000    -0.096      
C        C      0.726550000000     0.903300000000     0.634250000000    -0.096      
C        C      0.745950000000     0.909300000000     0.672420000000    -0.096      
C        C      0.695800000000     0.892600000000     0.641900000000    -0.096      
C        C      0.734450000000     0.906300000000     0.717980000000    -0.096      
C        C      0.684550000000     0.889350000000     0.687370000000    -0.096      
C        C      0.703850000000     0.896750000000     0.725570000000    -0.096      
C        C      0.669625000000     0.760880000000     0.585390000000    -0.096      
C        C      0.676750000000     0.773450000000     0.634250000000    -0.096      
C        C      0.663350000000     0.754050000000     0.672420000000    -0.096      
C        C      0.696800000000     0.804200000000     0.641900000000    -0.096      
C        C      0.671850000000     0.765550000000     0.717980000000    -0.096      
C        C      0.704800000000     0.815450000000     0.687370000000    -0.096      
C        C      0.692900000000     0.796150000000     0.725570000000    -0.096      
C        C      0.900500000000     0.627700000000     0.000000000000    -0.096      
C        C      0.931700000000     0.654850000000     0.000000000000    -0.096      
C        C      0.987250000000     0.690500000000     0.000000000000    -0.096      
C        C      0.520800000000     0.706000000000     0.000000000000    -0.096      
C        C      0.938750000000     0.684550000000     0.000000000000    -0.096      
C        C      0.969850000000     0.704700000000     0.000000000000    -0.096      
C        C      0.872300000000     0.772800000000     0.000000000000    -0.096      
C        C      0.845150000000     0.776850000000     0.000000000000    -0.096      
C        C      0.809500000000     0.796750000000     0.000000000000    -0.096      
C        C      0.794000000000     0.814800000000     0.000000000000    -0.096      
C        C      0.815450000000     0.754200000000     0.000000000000    -0.096      
C        C      0.795300000000     0.765150000000     0.000000000000    -0.096      
C        C      0.727200000000     0.599500000000     0.000000000000    -0.096      
C        C      0.723150000000     0.568300000000     0.000000000000    -0.096      
C        C      0.703250000000     0.512750000000     0.000000000000    -0.096      
C        C      0.685200000000     0.979200000000     0.000000000000    -0.096      
C        C      0.745800000000     0.561250000000     0.000000000000    -0.096      
C        C      0.734850000000     0.530150000000     0.000000000000    -0.096      
C        C      0.599500000000     0.872300000000     0.000000000000    -0.096      
C        C      0.568300000000     0.845150000000     0.000000000000    -0.096      
C        C      0.512750000000     0.809500000000     0.000000000000    -0.096      
C        C      0.979200000000     0.794000000000     0.000000000000    -0.096      
C        C      0.561250000000     0.815450000000     0.000000000000    -0.096      
C        C      0.530150000000     0.795300000000     0.000000000000    -0.096      
C        C      0.627700000000     0.727200000000     0.000000000000    -0.096      
C        C      0.654850000000     0.723150000000     0.000000000000    -0.096      
C        C      0.690500000000     0.703250000000     0.000000000000    -0.096      
C        C      0.706000000000     0.685200000000     0.000000000000    -0.096      
C        C      0.684550000000     0.745800000000     0.000000000000    -0.096      
C        C      0.704700000000     0.734850000000     0.000000000000    -0.096      
C        C      0.772800000000     0.900500000000     0.000000000000    -0.096      
C        C      0.776850000000     0.931700000000     0.000000000000    -0.096      
C        C      0.796750000000     0.987250000000     0.000000000000    -0.096      
C        C      0.814800000000     0.520800000000     0.000000000000    -0.096      
C        C      0.754200000000     0.938750000000     0.000000000000    -0.096      
C        C      0.765150000000     0.969850000000     0.000000000000    -0.096      
C        C      0.627700000000     0.900500000000     0.500000000000    -0.096      
C        C      0.654850000000     0.931700000000     0.500000000000    -0.096      
C        C      0.690500000000     0.987250000000     0.500000000000    -0.096      
C        C      0.706000000000     0.520800000000     0.500000000000    -0.096      
C        C      0.684550000000     0.938750000000     0.500000000000    -0.096      
C        C      0.704700000000     0.969850000000     0.500000000000    -0.096      
C        C      0.772800000000     0.872300000000     0.500000000000    -0.096      
C        C      0.776850000000     0.845150000000     0.500000000000    -0.096      
C        C      0.796750000000     0.809500000000     0.500000000000    -0.096      
C        C      0.814800000000     0.794000000000     0.500000000000    -0.096      
C        C      0.754200000000     0.815450000000     0.500000000000    -0.096      
C        C      0.765150000000     0.795300000000     0.500000000000    -0.096      
C        C      0.599500000000     0.727200000000     0.500000000000    -0.096      
C        C      0.568300000000     0.723150000000     0.500000000000    -0.096      
C        C      0.512750000000     0.703250000000     0.500000000000    -0.096      
C        C      0.979200000000     0.685200000000     0.500000000000    -0.096      
C        C      0.561250000000     0.745800000000     0.500000000000    -0.096      
C        C      0.530150000000     0.734850000000     0.500000000000    -0.096      
C        C      0.872300000000     0.599500000000     0.500000000000    -0.096      
C        C      0.845150000000     0.568300000000     0.500000000000    -0.096      
C        C      0.809500000000     0.512750000000     0.500000000000    -0.096      
C        C      0.794000000000     0.979200000000     0.500000000000    -0.096      
C        C      0.815450000000     0.561250000000     0.500000000000    -0.096      
C        C      0.795300000000     0.530150000000     0.500000000000    -0.096      
C        C      0.727200000000     0.627700000000     0.500000000000    -0.096      
C        C      0.723150000000     0.654850000000     0.500000000000    -0.096      
C        C      0.703250000000     0.690500000000     0.500000000000    -0.096      
C        C      0.685200000000     0.706000000000     0.500000000000    -0.096      
C        C      0.745800000000     0.684550000000     0.500000000000    -0.096      
C        C      0.734850000000     0.704700000000     0.500000000000    -0.096      
C        C      0.900500000000     0.772800000000     0.500000000000    -0.096      
C        C      0.931700000000     0.776850000000     0.500000000000    -0.096      
C        C      0.987250000000     0.796750000000     0.500000000000    -0.096      
C        C      0.520800000000     0.814800000000     0.500000000000    -0.096      
C        C      0.938750000000     0.754200000000     0.500000000000    -0.096      
C        C      0.969850000000     0.765150000000     0.500000000000    -0.096      
H        H      0.351200000000     0.084650000000     0.167600000000     0.07       
H        H      0.294950000000     0.112500000000     0.116500000000     0.07       
H        H      0.336850000000     0.089250000000     0.243500000000     0.07       
H        H      0.281600000000     0.117900000000     0.192100000000     0.07       
H        H      0.415350000000     0.266550000000     0.167600000000     0.07       
H        H      0.387500000000     0.182450000000     0.116500000000     0.07       
H        H      0.410750000000     0.247600000000     0.243500000000     0.07       
H        H      0.382100000000     0.163700000000     0.192100000000     0.07       
H        H      0.233450000000     0.148800000000     0.167600000000     0.07       
H        H      0.317550000000     0.205050000000     0.116500000000     0.07       
H        H      0.252400000000     0.163150000000     0.243500000000     0.07       
H        H      0.336300000000     0.218400000000     0.192100000000     0.07       
H        H      0.148800000000     0.415350000000     0.167600000000     0.07       
H        H      0.205050000000     0.387500000000     0.116500000000     0.07       
H        H      0.163150000000     0.410750000000     0.243500000000     0.07       
H        H      0.218400000000     0.382100000000     0.192100000000     0.07       
H        H      0.084650000000     0.233450000000     0.167600000000     0.07       
H        H      0.112500000000     0.317550000000     0.116500000000     0.07       
H        H      0.089250000000     0.252400000000     0.243500000000     0.07       
H        H      0.117900000000     0.336300000000     0.192100000000     0.07       
H        H      0.266550000000     0.351200000000     0.167600000000     0.07       
H        H      0.182450000000     0.294950000000     0.116500000000     0.07       
H        H      0.247600000000     0.336850000000     0.243500000000     0.07       
H        H      0.163700000000     0.281600000000     0.192100000000     0.07       
H        H      0.084650000000     0.351200000000     0.332400000000     0.07       
H        H      0.112500000000     0.294950000000     0.383500000000     0.07       
H        H      0.089250000000     0.336850000000     0.256500000000     0.07       
H        H      0.117900000000     0.281600000000     0.307900000000     0.07       
H        H      0.266550000000     0.415350000000     0.332400000000     0.07       
H        H      0.182450000000     0.387500000000     0.383500000000     0.07       
H        H      0.247600000000     0.410750000000     0.256500000000     0.07       
H        H      0.163700000000     0.382100000000     0.307900000000     0.07       
H        H      0.148800000000     0.233450000000     0.332400000000     0.07       
H        H      0.205050000000     0.317550000000     0.383500000000     0.07       
H        H      0.163150000000     0.252400000000     0.256500000000     0.07       
H        H      0.218400000000     0.336300000000     0.307900000000     0.07       
H        H      0.415350000000     0.148800000000     0.332400000000     0.07       
H        H      0.387500000000     0.205050000000     0.383500000000     0.07       
H        H      0.410750000000     0.163150000000     0.256500000000     0.07       
H        H      0.382100000000     0.218400000000     0.307900000000     0.07       
H        H      0.233450000000     0.084650000000     0.332400000000     0.07       
H        H      0.317550000000     0.112500000000     0.383500000000     0.07       
H        H      0.252400000000     0.089250000000     0.256500000000     0.07       
H        H      0.336300000000     0.117900000000     0.307900000000     0.07       
H        H      0.351200000000     0.266550000000     0.332400000000     0.07       
H        H      0.294950000000     0.182450000000     0.383500000000     0.07       
H        H      0.336850000000     0.247600000000     0.256500000000     0.07       
H        H      0.281600000000     0.163700000000     0.307900000000     0.07       
H        H      0.148800000000     0.415350000000     0.832400000000     0.07       
H        H      0.205050000000     0.387500000000     0.883500000000     0.07       
H        H      0.163150000000     0.410750000000     0.756500000000     0.07       
H        H      0.218400000000     0.382100000000     0.807900000000     0.07       
H        H      0.084650000000     0.233450000000     0.832400000000     0.07       
H        H      0.112500000000     0.317550000000     0.883500000000     0.07       
H        H      0.089250000000     0.252400000000     0.756500000000     0.07       
H        H      0.117900000000     0.336300000000     0.807900000000     0.07       
H        H      0.266550000000     0.351200000000     0.832400000000     0.07       
H        H      0.182450000000     0.294950000000     0.883500000000     0.07       
H        H      0.247600000000     0.336850000000     0.756500000000     0.07       
H        H      0.163700000000     0.281600000000     0.807900000000     0.07       
H        H      0.351200000000     0.084650000000     0.832400000000     0.07       
H        H      0.294950000000     0.112500000000     0.883500000000     0.07       
H        H      0.336850000000     0.089250000000     0.756500000000     0.07       
H        H      0.281600000000     0.117900000000     0.807900000000     0.07       
H        H      0.415350000000     0.266550000000     0.832400000000     0.07       
H        H      0.387500000000     0.182450000000     0.883500000000     0.07       
H        H      0.410750000000     0.247600000000     0.756500000000     0.07       
H        H      0.382100000000     0.163700000000     0.807900000000     0.07       
H        H      0.233450000000     0.148800000000     0.832400000000     0.07       
H        H      0.317550000000     0.205050000000     0.883500000000     0.07       
H        H      0.252400000000     0.163150000000     0.756500000000     0.07       
H        H      0.336300000000     0.218400000000     0.807900000000     0.07       
H        H      0.415350000000     0.148800000000     0.667600000000     0.07       
H        H      0.387500000000     0.205050000000     0.616500000000     0.07       
H        H      0.410750000000     0.163150000000     0.743500000000     0.07       
H        H      0.382100000000     0.218400000000     0.692100000000     0.07       
H        H      0.233450000000     0.084650000000     0.667600000000     0.07       
H        H      0.317550000000     0.112500000000     0.616500000000     0.07       
H        H      0.252400000000     0.089250000000     0.743500000000     0.07       
H        H      0.336300000000     0.117900000000     0.692100000000     0.07       
H        H      0.351200000000     0.266550000000     0.667600000000     0.07       
H        H      0.294950000000     0.182450000000     0.616500000000     0.07       
H        H      0.336850000000     0.247600000000     0.743500000000     0.07       
H        H      0.281600000000     0.163700000000     0.692100000000     0.07       
H        H      0.084650000000     0.351200000000     0.667600000000     0.07       
H        H      0.112500000000     0.294950000000     0.616500000000     0.07       
H        H      0.089250000000     0.336850000000     0.743500000000     0.07       
H        H      0.117900000000     0.281600000000     0.692100000000     0.07       
H        H      0.266550000000     0.415350000000     0.667600000000     0.07       
H        H      0.182450000000     0.387500000000     0.616500000000     0.07       
H        H      0.247600000000     0.410750000000     0.743500000000     0.07       
H        H      0.163700000000     0.382100000000     0.692100000000     0.07       
H        H      0.148800000000     0.233450000000     0.667600000000     0.07       
H        H      0.205050000000     0.317550000000     0.616500000000     0.07       
H        H      0.163150000000     0.252400000000     0.743500000000     0.07       
H        H      0.218400000000     0.336300000000     0.692100000000     0.07       
H        H      0.424050000000     0.190700000000     0.000000000000     0.07       
H        H      0.478400000000     0.225950000000     0.000000000000     0.07       
H        H      0.309300000000     0.233350000000     0.000000000000     0.07       
H        H      0.274050000000     0.252450000000     0.000000000000     0.07       
H        H      0.266650000000     0.075950000000     0.000000000000     0.07       
H        H      0.247550000000     0.021600000000     0.000000000000     0.07       
H        H      0.075950000000     0.309300000000     0.000000000000     0.07       
H        H      0.021600000000     0.274050000000     0.000000000000     0.07       
H        H      0.190700000000     0.266650000000     0.000000000000     0.07       
H        H      0.225950000000     0.247550000000     0.000000000000     0.07       
H        H      0.233350000000     0.424050000000     0.000000000000     0.07       
H        H      0.252450000000     0.478400000000     0.000000000000     0.07       
H        H      0.190700000000     0.424050000000     0.500000000000     0.07       
H        H      0.225950000000     0.478400000000     0.500000000000     0.07       
H        H      0.233350000000     0.309300000000     0.500000000000     0.07       
H        H      0.252450000000     0.274050000000     0.500000000000     0.07       
H        H      0.075950000000     0.266650000000     0.500000000000     0.07       
H        H      0.021600000000     0.247550000000     0.500000000000     0.07       
H        H      0.309300000000     0.075950000000     0.500000000000     0.07       
H        H      0.274050000000     0.021600000000     0.500000000000     0.07       
H        H      0.266650000000     0.190700000000     0.500000000000     0.07       
H        H      0.247550000000     0.225950000000     0.500000000000     0.07       
H        H      0.424050000000     0.233350000000     0.500000000000     0.07       
H        H      0.478400000000     0.252450000000     0.500000000000     0.07       
H        H      0.351200000000     0.584650000000     0.167600000000     0.07       
H        H      0.294950000000     0.612500000000     0.116500000000     0.07       
H        H      0.336850000000     0.589250000000     0.243500000000     0.07       
H        H      0.281600000000     0.617900000000     0.192100000000     0.07       
H        H      0.415350000000     0.766550000000     0.167600000000     0.07       
H        H      0.387500000000     0.682450000000     0.116500000000     0.07       
H        H      0.410750000000     0.747600000000     0.243500000000     0.07       
H        H      0.382100000000     0.663700000000     0.192100000000     0.07       
H        H      0.233450000000     0.648800000000     0.167600000000     0.07       
H        H      0.317550000000     0.705050000000     0.116500000000     0.07       
H        H      0.252400000000     0.663150000000     0.243500000000     0.07       
H        H      0.336300000000     0.718400000000     0.192100000000     0.07       
H        H      0.148800000000     0.915350000000     0.167600000000     0.07       
H        H      0.205050000000     0.887500000000     0.116500000000     0.07       
H        H      0.163150000000     0.910750000000     0.243500000000     0.07       
H        H      0.218400000000     0.882100000000     0.192100000000     0.07       
H        H      0.084650000000     0.733450000000     0.167600000000     0.07       
H        H      0.112500000000     0.817550000000     0.116500000000     0.07       
H        H      0.089250000000     0.752400000000     0.243500000000     0.07       
H        H      0.117900000000     0.836300000000     0.192100000000     0.07       
H        H      0.266550000000     0.851200000000     0.167600000000     0.07       
H        H      0.182450000000     0.794950000000     0.116500000000     0.07       
H        H      0.247600000000     0.836850000000     0.243500000000     0.07       
H        H      0.163700000000     0.781600000000     0.192100000000     0.07       
H        H      0.084650000000     0.851200000000     0.332400000000     0.07       
H        H      0.112500000000     0.794950000000     0.383500000000     0.07       
H        H      0.089250000000     0.836850000000     0.256500000000     0.07       
H        H      0.117900000000     0.781600000000     0.307900000000     0.07       
H        H      0.266550000000     0.915350000000     0.332400000000     0.07       
H        H      0.182450000000     0.887500000000     0.383500000000     0.07       
H        H      0.247600000000     0.910750000000     0.256500000000     0.07       
H        H      0.163700000000     0.882100000000     0.307900000000     0.07       
H        H      0.148800000000     0.733450000000     0.332400000000     0.07       
H        H      0.205050000000     0.817550000000     0.383500000000     0.07       
H        H      0.163150000000     0.752400000000     0.256500000000     0.07       
H        H      0.218400000000     0.836300000000     0.307900000000     0.07       
H        H      0.415350000000     0.648800000000     0.332400000000     0.07       
H        H      0.387500000000     0.705050000000     0.383500000000     0.07       
H        H      0.410750000000     0.663150000000     0.256500000000     0.07       
H        H      0.382100000000     0.718400000000     0.307900000000     0.07       
H        H      0.233450000000     0.584650000000     0.332400000000     0.07       
H        H      0.317550000000     0.612500000000     0.383500000000     0.07       
H        H      0.252400000000     0.589250000000     0.256500000000     0.07       
H        H      0.336300000000     0.617900000000     0.307900000000     0.07       
H        H      0.351200000000     0.766550000000     0.332400000000     0.07       
H        H      0.294950000000     0.682450000000     0.383500000000     0.07       
H        H      0.336850000000     0.747600000000     0.256500000000     0.07       
H        H      0.281600000000     0.663700000000     0.307900000000     0.07       
H        H      0.148800000000     0.915350000000     0.832400000000     0.07       
H        H      0.205050000000     0.887500000000     0.883500000000     0.07       
H        H      0.163150000000     0.910750000000     0.756500000000     0.07       
H        H      0.218400000000     0.882100000000     0.807900000000     0.07       
H        H      0.084650000000     0.733450000000     0.832400000000     0.07       
H        H      0.112500000000     0.817550000000     0.883500000000     0.07       
H        H      0.089250000000     0.752400000000     0.756500000000     0.07       
H        H      0.117900000000     0.836300000000     0.807900000000     0.07       
H        H      0.266550000000     0.851200000000     0.832400000000     0.07       
H        H      0.182450000000     0.794950000000     0.883500000000     0.07       
H        H      0.247600000000     0.836850000000     0.756500000000     0.07       
H        H      0.163700000000     0.781600000000     0.807900000000     0.07       
H        H      0.351200000000     0.584650000000     0.832400000000     0.07       
H        H      0.294950000000     0.612500000000     0.883500000000     0.07       
H        H      0.336850000000     0.589250000000     0.756500000000     0.07       
H        H      0.281600000000     0.617900000000     0.807900000000     0.07       
H        H      0.415350000000     0.766550000000     0.832400000000     0.07       
H        H      0.387500000000     0.682450000000     0.883500000000     0.07       
H        H      0.410750000000     0.747600000000     0.756500000000     0.07       
H        H      0.382100000000     0.663700000000     0.807900000000     0.07       
H        H      0.233450000000     0.648800000000     0.832400000000     0.07       
H        H      0.317550000000     0.705050000000     0.883500000000     0.07       
H        H      0.252400000000     0.663150000000     0.756500000000     0.07       
H        H      0.336300000000     0.718400000000     0.807900000000     0.07       
H        H      0.415350000000     0.648800000000     0.667600000000     0.07       
H        H      0.387500000000     0.705050000000     0.616500000000     0.07       
H        H      0.410750000000     0.663150000000     0.743500000000     0.07       
H        H      0.382100000000     0.718400000000     0.692100000000     0.07       
H        H      0.233450000000     0.584650000000     0.667600000000     0.07       
H        H      0.317550000000     0.612500000000     0.616500000000     0.07       
H        H      0.252400000000     0.589250000000     0.743500000000     0.07       
H        H      0.336300000000     0.617900000000     0.692100000000     0.07       
H        H      0.351200000000     0.766550000000     0.667600000000     0.07       
H        H      0.294950000000     0.682450000000     0.616500000000     0.07       
H        H      0.336850000000     0.747600000000     0.743500000000     0.07       
H        H      0.281600000000     0.663700000000     0.692100000000     0.07       
H        H      0.084650000000     0.851200000000     0.667600000000     0.07       
H        H      0.112500000000     0.794950000000     0.616500000000     0.07       
H        H      0.089250000000     0.836850000000     0.743500000000     0.07       
H        H      0.117900000000     0.781600000000     0.692100000000     0.07       
H        H      0.266550000000     0.915350000000     0.667600000000     0.07       
H        H      0.182450000000     0.887500000000     0.616500000000     0.07       
H        H      0.247600000000     0.910750000000     0.743500000000     0.07       
H        H      0.163700000000     0.882100000000     0.692100000000     0.07       
H        H      0.148800000000     0.733450000000     0.667600000000     0.07       
H        H      0.205050000000     0.817550000000     0.616500000000     0.07       
H        H      0.163150000000     0.752400000000     0.743500000000     0.07       
H        H      0.218400000000     0.836300000000     0.692100000000     0.07       
H        H      0.424050000000     0.690700000000     0.000000000000     0.07       
H        H      0.478400000000     0.725950000000     0.000000000000     0.07       
H        H      0.309300000000     0.733350000000     0.000000000000     0.07       
H        H      0.274050000000     0.752450000000     0.000000000000     0.07       
H        H      0.266650000000     0.575950000000     0.000000000000     0.07       
H        H      0.247550000000     0.521600000000     0.000000000000     0.07       
H        H      0.075950000000     0.809300000000     0.000000000000     0.07       
H        H      0.021600000000     0.774050000000     0.000000000000     0.07       
H        H      0.190700000000     0.766650000000     0.000000000000     0.07       
H        H      0.225950000000     0.747550000000     0.000000000000     0.07       
H        H      0.233350000000     0.924050000000     0.000000000000     0.07       
H        H      0.252450000000     0.978400000000     0.000000000000     0.07       
H        H      0.190700000000     0.924050000000     0.500000000000     0.07       
H        H      0.225950000000     0.978400000000     0.500000000000     0.07       
H        H      0.233350000000     0.809300000000     0.500000000000     0.07       
H        H      0.252450000000     0.774050000000     0.500000000000     0.07       
H        H      0.075950000000     0.766650000000     0.500000000000     0.07       
H        H      0.021600000000     0.747550000000     0.500000000000     0.07       
H        H      0.309300000000     0.575950000000     0.500000000000     0.07       
H        H      0.274050000000     0.521600000000     0.500000000000     0.07       
H        H      0.266650000000     0.690700000000     0.500000000000     0.07       
H        H      0.247550000000     0.725950000000     0.500000000000     0.07       
H        H      0.424050000000     0.733350000000     0.500000000000     0.07       
H        H      0.478400000000     0.752450000000     0.500000000000     0.07       
H        H      0.851200000000     0.084650000000     0.167600000000     0.07       
H        H      0.794950000000     0.112500000000     0.116500000000     0.07       
H        H      0.836850000000     0.089250000000     0.243500000000     0.07       
H        H      0.781600000000     0.117900000000     0.192100000000     0.07       
H        H      0.915350000000     0.266550000000     0.167600000000     0.07       
H        H      0.887500000000     0.182450000000     0.116500000000     0.07       
H        H      0.910750000000     0.247600000000     0.243500000000     0.07       
H        H      0.882100000000     0.163700000000     0.192100000000     0.07       
H        H      0.733450000000     0.148800000000     0.167600000000     0.07       
H        H      0.817550000000     0.205050000000     0.116500000000     0.07       
H        H      0.752400000000     0.163150000000     0.243500000000     0.07       
H        H      0.836300000000     0.218400000000     0.192100000000     0.07       
H        H      0.648800000000     0.415350000000     0.167600000000     0.07       
H        H      0.705050000000     0.387500000000     0.116500000000     0.07       
H        H      0.663150000000     0.410750000000     0.243500000000     0.07       
H        H      0.718400000000     0.382100000000     0.192100000000     0.07       
H        H      0.584650000000     0.233450000000     0.167600000000     0.07       
H        H      0.612500000000     0.317550000000     0.116500000000     0.07       
H        H      0.589250000000     0.252400000000     0.243500000000     0.07       
H        H      0.617900000000     0.336300000000     0.192100000000     0.07       
H        H      0.766550000000     0.351200000000     0.167600000000     0.07       
H        H      0.682450000000     0.294950000000     0.116500000000     0.07       
H        H      0.747600000000     0.336850000000     0.243500000000     0.07       
H        H      0.663700000000     0.281600000000     0.192100000000     0.07       
H        H      0.584650000000     0.351200000000     0.332400000000     0.07       
H        H      0.612500000000     0.294950000000     0.383500000000     0.07       
H        H      0.589250000000     0.336850000000     0.256500000000     0.07       
H        H      0.617900000000     0.281600000000     0.307900000000     0.07       
H        H      0.766550000000     0.415350000000     0.332400000000     0.07       
H        H      0.682450000000     0.387500000000     0.383500000000     0.07       
H        H      0.747600000000     0.410750000000     0.256500000000     0.07       
H        H      0.663700000000     0.382100000000     0.307900000000     0.07       
H        H      0.648800000000     0.233450000000     0.332400000000     0.07       
H        H      0.705050000000     0.317550000000     0.383500000000     0.07       
H        H      0.663150000000     0.252400000000     0.256500000000     0.07       
H        H      0.718400000000     0.336300000000     0.307900000000     0.07       
H        H      0.915350000000     0.148800000000     0.332400000000     0.07       
H        H      0.887500000000     0.205050000000     0.383500000000     0.07       
H        H      0.910750000000     0.163150000000     0.256500000000     0.07       
H        H      0.882100000000     0.218400000000     0.307900000000     0.07       
H        H      0.733450000000     0.084650000000     0.332400000000     0.07       
H        H      0.817550000000     0.112500000000     0.383500000000     0.07       
H        H      0.752400000000     0.089250000000     0.256500000000     0.07       
H        H      0.836300000000     0.117900000000     0.307900000000     0.07       
H        H      0.851200000000     0.266550000000     0.332400000000     0.07       
H        H      0.794950000000     0.182450000000     0.383500000000     0.07       
H        H      0.836850000000     0.247600000000     0.256500000000     0.07       
H        H      0.781600000000     0.163700000000     0.307900000000     0.07       
H        H      0.648800000000     0.415350000000     0.832400000000     0.07       
H        H      0.705050000000     0.387500000000     0.883500000000     0.07       
H        H      0.663150000000     0.410750000000     0.756500000000     0.07       
H        H      0.718400000000     0.382100000000     0.807900000000     0.07       
H        H      0.584650000000     0.233450000000     0.832400000000     0.07       
H        H      0.612500000000     0.317550000000     0.883500000000     0.07       
H        H      0.589250000000     0.252400000000     0.756500000000     0.07       
H        H      0.617900000000     0.336300000000     0.807900000000     0.07       
H        H      0.766550000000     0.351200000000     0.832400000000     0.07       
H        H      0.682450000000     0.294950000000     0.883500000000     0.07       
H        H      0.747600000000     0.336850000000     0.756500000000     0.07       
H        H      0.663700000000     0.281600000000     0.807900000000     0.07       
H        H      0.851200000000     0.084650000000     0.832400000000     0.07       
H        H      0.794950000000     0.112500000000     0.883500000000     0.07       
H        H      0.836850000000     0.089250000000     0.756500000000     0.07       
H        H      0.781600000000     0.117900000000     0.807900000000     0.07       
H        H      0.915350000000     0.266550000000     0.832400000000     0.07       
H        H      0.887500000000     0.182450000000     0.883500000000     0.07       
H        H      0.910750000000     0.247600000000     0.756500000000     0.07       
H        H      0.882100000000     0.163700000000     0.807900000000     0.07       
H        H      0.733450000000     0.148800000000     0.832400000000     0.07       
H        H      0.817550000000     0.205050000000     0.883500000000     0.07       
H        H      0.752400000000     0.163150000000     0.756500000000     0.07       
H        H      0.836300000000     0.218400000000     0.807900000000     0.07       
H        H      0.915350000000     0.148800000000     0.667600000000     0.07       
H        H      0.887500000000     0.205050000000     0.616500000000     0.07       
H        H      0.910750000000     0.163150000000     0.743500000000     0.07       
H        H      0.882100000000     0.218400000000     0.692100000000     0.07       
H        H      0.733450000000     0.084650000000     0.667600000000     0.07       
H        H      0.817550000000     0.112500000000     0.616500000000     0.07       
H        H      0.752400000000     0.089250000000     0.743500000000     0.07       
H        H      0.836300000000     0.117900000000     0.692100000000     0.07       
H        H      0.851200000000     0.266550000000     0.667600000000     0.07       
H        H      0.794950000000     0.182450000000     0.616500000000     0.07       
H        H      0.836850000000     0.247600000000     0.743500000000     0.07       
H        H      0.781600000000     0.163700000000     0.692100000000     0.07       
H        H      0.584650000000     0.351200000000     0.667600000000     0.07       
H        H      0.612500000000     0.294950000000     0.616500000000     0.07       
H        H      0.589250000000     0.336850000000     0.743500000000     0.07       
H        H      0.617900000000     0.281600000000     0.692100000000     0.07       
H        H      0.766550000000     0.415350000000     0.667600000000     0.07       
H        H      0.682450000000     0.387500000000     0.616500000000     0.07       
H        H      0.747600000000     0.410750000000     0.743500000000     0.07       
H        H      0.663700000000     0.382100000000     0.692100000000     0.07       
H        H      0.648800000000     0.233450000000     0.667600000000     0.07       
H        H      0.705050000000     0.317550000000     0.616500000000     0.07       
H        H      0.663150000000     0.252400000000     0.743500000000     0.07       
H        H      0.718400000000     0.336300000000     0.692100000000     0.07       
H        H      0.924050000000     0.190700000000     0.000000000000     0.07       
H        H      0.978400000000     0.225950000000     0.000000000000     0.07       
H        H      0.809300000000     0.233350000000     0.000000000000     0.07       
H        H      0.774050000000     0.252450000000     0.000000000000     0.07       
H        H      0.766650000000     0.075950000000     0.000000000000     0.07       
H        H      0.747550000000     0.021600000000     0.000000000000     0.07       
H        H      0.575950000000     0.309300000000     0.000000000000     0.07       
H        H      0.521600000000     0.274050000000     0.000000000000     0.07       
H        H      0.690700000000     0.266650000000     0.000000000000     0.07       
H        H      0.725950000000     0.247550000000     0.000000000000     0.07       
H        H      0.733350000000     0.424050000000     0.000000000000     0.07       
H        H      0.752450000000     0.478400000000     0.000000000000     0.07       
H        H      0.690700000000     0.424050000000     0.500000000000     0.07       
H        H      0.725950000000     0.478400000000     0.500000000000     0.07       
H        H      0.733350000000     0.309300000000     0.500000000000     0.07       
H        H      0.752450000000     0.274050000000     0.500000000000     0.07       
H        H      0.575950000000     0.266650000000     0.500000000000     0.07       
H        H      0.521600000000     0.247550000000     0.500000000000     0.07       
H        H      0.809300000000     0.075950000000     0.500000000000     0.07       
H        H      0.774050000000     0.021600000000     0.500000000000     0.07       
H        H      0.766650000000     0.190700000000     0.500000000000     0.07       
H        H      0.747550000000     0.225950000000     0.500000000000     0.07       
H        H      0.924050000000     0.233350000000     0.500000000000     0.07       
H        H      0.978400000000     0.252450000000     0.500000000000     0.07       
H        H      0.851200000000     0.584650000000     0.167600000000     0.07       
H        H      0.794950000000     0.612500000000     0.116500000000     0.07       
H        H      0.836850000000     0.589250000000     0.243500000000     0.07       
H        H      0.781600000000     0.617900000000     0.192100000000     0.07       
H        H      0.915350000000     0.766550000000     0.167600000000     0.07       
H        H      0.887500000000     0.682450000000     0.116500000000     0.07       
H        H      0.910750000000     0.747600000000     0.243500000000     0.07       
H        H      0.882100000000     0.663700000000     0.192100000000     0.07       
H        H      0.733450000000     0.648800000000     0.167600000000     0.07       
H        H      0.817550000000     0.705050000000     0.116500000000     0.07       
H        H      0.752400000000     0.663150000000     0.243500000000     0.07       
H        H      0.836300000000     0.718400000000     0.192100000000     0.07       
H        H      0.648800000000     0.915350000000     0.167600000000     0.07       
H        H      0.705050000000     0.887500000000     0.116500000000     0.07       
H        H      0.663150000000     0.910750000000     0.243500000000     0.07       
H        H      0.718400000000     0.882100000000     0.192100000000     0.07       
H        H      0.584650000000     0.733450000000     0.167600000000     0.07       
H        H      0.612500000000     0.817550000000     0.116500000000     0.07       
H        H      0.589250000000     0.752400000000     0.243500000000     0.07       
H        H      0.617900000000     0.836300000000     0.192100000000     0.07       
H        H      0.766550000000     0.851200000000     0.167600000000     0.07       
H        H      0.682450000000     0.794950000000     0.116500000000     0.07       
H        H      0.747600000000     0.836850000000     0.243500000000     0.07       
H        H      0.663700000000     0.781600000000     0.192100000000     0.07       
H        H      0.584650000000     0.851200000000     0.332400000000     0.07       
H        H      0.612500000000     0.794950000000     0.383500000000     0.07       
H        H      0.589250000000     0.836850000000     0.256500000000     0.07       
H        H      0.617900000000     0.781600000000     0.307900000000     0.07       
H        H      0.766550000000     0.915350000000     0.332400000000     0.07       
H        H      0.682450000000     0.887500000000     0.383500000000     0.07       
H        H      0.747600000000     0.910750000000     0.256500000000     0.07       
H        H      0.663700000000     0.882100000000     0.307900000000     0.07       
H        H      0.648800000000     0.733450000000     0.332400000000     0.07       
H        H      0.705050000000     0.817550000000     0.383500000000     0.07       
H        H      0.663150000000     0.752400000000     0.256500000000     0.07       
H        H      0.718400000000     0.836300000000     0.307900000000     0.07       
H        H      0.915350000000     0.648800000000     0.332400000000     0.07       
H        H      0.887500000000     0.705050000000     0.383500000000     0.07       
H        H      0.910750000000     0.663150000000     0.256500000000     0.07       
H        H      0.882100000000     0.718400000000     0.307900000000     0.07       
H        H      0.733450000000     0.584650000000     0.332400000000     0.07       
H        H      0.817550000000     0.612500000000     0.383500000000     0.07       
H        H      0.752400000000     0.589250000000     0.256500000000     0.07       
H        H      0.836300000000     0.617900000000     0.307900000000     0.07       
H        H      0.851200000000     0.766550000000     0.332400000000     0.07       
H        H      0.794950000000     0.682450000000     0.383500000000     0.07       
H        H      0.836850000000     0.747600000000     0.256500000000     0.07       
H        H      0.781600000000     0.663700000000     0.307900000000     0.07       
H        H      0.648800000000     0.915350000000     0.832400000000     0.07       
H        H      0.705050000000     0.887500000000     0.883500000000     0.07       
H        H      0.663150000000     0.910750000000     0.756500000000     0.07       
H        H      0.718400000000     0.882100000000     0.807900000000     0.07       
H        H      0.584650000000     0.733450000000     0.832400000000     0.07       
H        H      0.612500000000     0.817550000000     0.883500000000     0.07       
H        H      0.589250000000     0.752400000000     0.756500000000     0.07       
H        H      0.617900000000     0.836300000000     0.807900000000     0.07       
H        H      0.766550000000     0.851200000000     0.832400000000     0.07       
H        H      0.682450000000     0.794950000000     0.883500000000     0.07       
H        H      0.747600000000     0.836850000000     0.756500000000     0.07       
H        H      0.663700000000     0.781600000000     0.807900000000     0.07       
H        H      0.851200000000     0.584650000000     0.832400000000     0.07       
H        H      0.794950000000     0.612500000000     0.883500000000     0.07       
H        H      0.836850000000     0.589250000000     0.756500000000     0.07       
H        H      0.781600000000     0.617900000000     0.807900000000     0.07       
H        H      0.915350000000     0.766550000000     0.832400000000     0.07       
H        H      0.887500000000     0.682450000000     0.883500000000     0.07       
H        H      0.910750000000     0.747600000000     0.756500000000     0.07       
H        H      0.882100000000     0.663700000000     0.807900000000     0.07       
H        H      0.733450000000     0.648800000000     0.832400000000     0.07       
H        H      0.817550000000     0.705050000000     0.883500000000     0.07       
H        H      0.752400000000     0.663150000000     0.756500000000     0.07       
H        H      0.836300000000     0.718400000000     0.807900000000     0.07       
H        H      0.915350000000     0.648800000000     0.667600000000     0.07       
H        H      0.887500000000     0.705050000000     0.616500000000     0.07       
H        H      0.910750000000     0.663150000000     0.743500000000     0.07       
H        H      0.882100000000     0.718400000000     0.692100000000     0.07       
H        H      0.733450000000     0.584650000000     0.667600000000     0.07       
H        H      0.817550000000     0.612500000000     0.616500000000     0.07       
H        H      0.752400000000     0.589250000000     0.743500000000     0.07       
H        H      0.836300000000     0.617900000000     0.692100000000     0.07       
H        H      0.851200000000     0.766550000000     0.667600000000     0.07       
H        H      0.794950000000     0.682450000000     0.616500000000     0.07       
H        H      0.836850000000     0.747600000000     0.743500000000     0.07       
H        H      0.781600000000     0.663700000000     0.692100000000     0.07       
H        H      0.584650000000     0.851200000000     0.667600000000     0.07       
H        H      0.612500000000     0.794950000000     0.616500000000     0.07       
H        H      0.589250000000     0.836850000000     0.743500000000     0.07       
H        H      0.617900000000     0.781600000000     0.692100000000     0.07       
H        H      0.766550000000     0.915350000000     0.667600000000     0.07       
H        H      0.682450000000     0.887500000000     0.616500000000     0.07       
H        H      0.747600000000     0.910750000000     0.743500000000     0.07       
H        H      0.663700000000     0.882100000000     0.692100000000     0.07       
H        H      0.648800000000     0.733450000000     0.667600000000     0.07       
H        H      0.705050000000     0.817550000000     0.616500000000     0.07       
H        H      0.663150000000     0.752400000000     0.743500000000     0.07       
H        H      0.718400000000     0.836300000000     0.692100000000     0.07       
H        H      0.924050000000     0.690700000000     0.000000000000     0.07       
H        H      0.978400000000     0.725950000000     0.000000000000     0.07       
H        H      0.809300000000     0.733350000000     0.000000000000     0.07       
H        H      0.774050000000     0.752450000000     0.000000000000     0.07       
H        H      0.766650000000     0.575950000000     0.000000000000     0.07       
H        H      0.747550000000     0.521600000000     0.000000000000     0.07       
H        H      0.575950000000     0.809300000000     0.000000000000     0.07       
H        H      0.521600000000     0.774050000000     0.000000000000     0.07       
H        H      0.690700000000     0.766650000000     0.000000000000     0.07       
H        H      0.725950000000     0.747550000000     0.000000000000     0.07       
H        H      0.733350000000     0.924050000000     0.000000000000     0.07       
H        H      0.752450000000     0.978400000000     0.000000000000     0.07       
H        H      0.690700000000     0.924050000000     0.500000000000     0.07       
H        H      0.725950000000     0.978400000000     0.500000000000     0.07       
H        H      0.733350000000     0.809300000000     0.500000000000     0.07       
H        H      0.752450000000     0.774050000000     0.500000000000     0.07       
H        H      0.575950000000     0.766650000000     0.500000000000     0.07       
H        H      0.521600000000     0.747550000000     0.500000000000     0.07       
H        H      0.809300000000     0.575950000000     0.500000000000     0.07       
H        H      0.774050000000     0.521600000000     0.500000000000     0.07       
H        H      0.766650000000     0.690700000000     0.500000000000     0.07       
H        H      0.747550000000     0.725950000000     0.500000000000     0.07       
H        H      0.924050000000     0.733350000000     0.500000000000     0.07       
H        H      0.978400000000     0.752450000000     0.500000000000     0.07       
In       In     0.343925000000     0.081470000000     0.000000000000    -0.095      
In       In     0.418530000000     0.262455000000     0.000000000000    -0.095      
In       In     0.237545000000     0.156075000000     0.000000000000    -0.095      
In       In     0.156075000000     0.418530000000     0.000000000000    -0.095      
In       In     0.081470000000     0.237545000000     0.000000000000    -0.095      
In       In     0.262455000000     0.343925000000     0.000000000000    -0.095      
In       In     0.081470000000     0.343925000000     0.500000000000    -0.095      
In       In     0.262455000000     0.418530000000     0.500000000000    -0.095      
In       In     0.156075000000     0.237545000000     0.500000000000    -0.095      
In       In     0.418530000000     0.156075000000     0.500000000000    -0.095      
In       In     0.237545000000     0.081470000000     0.500000000000    -0.095      
In       In     0.343925000000     0.262455000000     0.500000000000    -0.095      
In       In     0.343925000000     0.581470000000     0.000000000000    -0.095      
In       In     0.418530000000     0.762455000000     0.000000000000    -0.095      
In       In     0.237545000000     0.656075000000     0.000000000000    -0.095      
In       In     0.156075000000     0.918530000000     0.000000000000    -0.095      
In       In     0.081470000000     0.737545000000     0.000000000000    -0.095      
In       In     0.262455000000     0.843925000000     0.000000000000    -0.095      
In       In     0.081470000000     0.843925000000     0.500000000000    -0.095      
In       In     0.262455000000     0.918530000000     0.500000000000    -0.095      
In       In     0.156075000000     0.737545000000     0.500000000000    -0.095      
In       In     0.418530000000     0.656075000000     0.500000000000    -0.095      
In       In     0.237545000000     0.581470000000     0.500000000000    -0.095      
In       In     0.343925000000     0.762455000000     0.500000000000    -0.095      
In       In     0.843925000000     0.081470000000     0.000000000000    -0.095      
In       In     0.918530000000     0.262455000000     0.000000000000    -0.095      
In       In     0.737545000000     0.156075000000     0.000000000000    -0.095      
In       In     0.656075000000     0.418530000000     0.000000000000    -0.095      
In       In     0.581470000000     0.237545000000     0.000000000000    -0.095      
In       In     0.762455000000     0.343925000000     0.000000000000    -0.095      
In       In     0.581470000000     0.343925000000     0.500000000000    -0.095      
In       In     0.762455000000     0.418530000000     0.500000000000    -0.095      
In       In     0.656075000000     0.237545000000     0.500000000000    -0.095      
In       In     0.918530000000     0.156075000000     0.500000000000    -0.095      
In       In     0.737545000000     0.081470000000     0.500000000000    -0.095      
In       In     0.843925000000     0.262455000000     0.500000000000    -0.095      
In       In     0.843925000000     0.581470000000     0.000000000000    -0.095      
In       In     0.918530000000     0.762455000000     0.000000000000    -0.095      
In       In     0.737545000000     0.656075000000     0.000000000000    -0.095      
In       In     0.656075000000     0.918530000000     0.000000000000    -0.095      
In       In     0.581470000000     0.737545000000     0.000000000000    -0.095      
In       In     0.762455000000     0.843925000000     0.000000000000    -0.095      
In       In     0.581470000000     0.843925000000     0.500000000000    -0.095      
In       In     0.762455000000     0.918530000000     0.500000000000    -0.095      
In       In     0.656075000000     0.737545000000     0.500000000000    -0.095      
In       In     0.918530000000     0.656075000000     0.500000000000    -0.095      
In       In     0.737545000000     0.581470000000     0.500000000000    -0.095      
In       In     0.843925000000     0.762455000000     0.500000000000    -0.095      
S        S      0.464065000000     0.151590000000     0.000000000000     0.071      
S        S      0.348410000000     0.312475000000     0.000000000000     0.071      
S        S      0.187525000000     0.035935000000     0.000000000000     0.071      
S        S      0.035935000000     0.348410000000     0.000000000000     0.071      
S        S      0.151590000000     0.187525000000     0.000000000000     0.071      
S        S      0.312475000000     0.464065000000     0.000000000000     0.071      
S        S      0.151590000000     0.464065000000     0.500000000000     0.071      
S        S      0.312475000000     0.348410000000     0.500000000000     0.071      
S        S      0.035935000000     0.187525000000     0.500000000000     0.071      
S        S      0.348410000000     0.035935000000     0.500000000000     0.071      
S        S      0.187525000000     0.151590000000     0.500000000000     0.071      
S        S      0.464065000000     0.312475000000     0.500000000000     0.071      
S        S      0.464065000000     0.651590000000     0.000000000000     0.071      
S        S      0.348410000000     0.812475000000     0.000000000000     0.071      
S        S      0.187525000000     0.535935000000     0.000000000000     0.071      
S        S      0.035935000000     0.848410000000     0.000000000000     0.071      
S        S      0.151590000000     0.687525000000     0.000000000000     0.071      
S        S      0.312475000000     0.964065000000     0.000000000000     0.071      
S        S      0.151590000000     0.964065000000     0.500000000000     0.071      
S        S      0.312475000000     0.848410000000     0.500000000000     0.071      
S        S      0.035935000000     0.687525000000     0.500000000000     0.071      
S        S      0.348410000000     0.535935000000     0.500000000000     0.071      
S        S      0.187525000000     0.651590000000     0.500000000000     0.071      
S        S      0.464065000000     0.812475000000     0.500000000000     0.071      
S        S      0.964065000000     0.151590000000     0.000000000000     0.071      
S        S      0.848410000000     0.312475000000     0.000000000000     0.071      
S        S      0.687525000000     0.035935000000     0.000000000000     0.071      
S        S      0.535935000000     0.348410000000     0.000000000000     0.071      
S        S      0.651590000000     0.187525000000     0.000000000000     0.071      
S        S      0.812475000000     0.464065000000     0.000000000000     0.071      
S        S      0.651590000000     0.464065000000     0.500000000000     0.071      
S        S      0.812475000000     0.348410000000     0.500000000000     0.071      
S        S      0.535935000000     0.187525000000     0.500000000000     0.071      
S        S      0.848410000000     0.035935000000     0.500000000000     0.071      
S        S      0.687525000000     0.151590000000     0.500000000000     0.071      
S        S      0.964065000000     0.312475000000     0.500000000000     0.071      
S        S      0.964065000000     0.651590000000     0.000000000000     0.071      
S        S      0.848410000000     0.812475000000     0.000000000000     0.071      
S        S      0.687525000000     0.535935000000     0.000000000000     0.071      
S        S      0.535935000000     0.848410000000     0.000000000000     0.071      
S        S      0.651590000000     0.687525000000     0.000000000000     0.071      
S        S      0.812475000000     0.964065000000     0.000000000000     0.071      
S        S      0.651590000000     0.964065000000     0.500000000000     0.071      
S        S      0.812475000000     0.848410000000     0.500000000000     0.071      
S        S      0.535935000000     0.687525000000     0.500000000000     0.071      
S        S      0.848410000000     0.535935000000     0.500000000000     0.071      
S        S      0.687525000000     0.651590000000     0.500000000000     0.071      
S        S      0.964065000000     0.812475000000     0.500000000000     0.071      


