data_JAFPIQ_clean

_audit_creation_method RASPA-1.0
_audit_creation_date 2022-6-20
_audit_author_name 'Xiaoqi Zhang'

_cell_length_a    28.74
_cell_length_b    35.588
_cell_length_c    36.678
_cell_angle_alpha 95.83
_cell_angle_beta  98.89
_cell_angle_gamma 95.49
_cell_volume      36634.4

_symmetry_cell_setting          triclinic
_symmetry_space_group_name_Hall 'P 1'
_symmetry_space_group_name_H-M  'P 1'
_symmetry_Int_Tables_number     1

_symmetry_equiv_pos_as_xyz 'x,y,z'

loop_
_atom_site_label
_atom_site_type_symbol
_atom_site_fract_x
_atom_site_fract_y
_atom_site_fract_z
_atom_site_charge
Ag       Ag     0.020496000000     0.275545000000     0.189825000000     0.481      
Ag       Ag     0.072970000000     0.213815000000     0.250165000000     0.46       
Ag       Ag     0.123582000000     0.017225000000     0.095280000000     0.47       
Ag       Ag     0.053442000000     0.474300000000     0.003000000000     0.489      
C        C      0.110580000000     0.228900000000     0.179000000000     0.414      
C        C      0.116740000000     0.212900000000     0.140900000000    -0.459      
H        H      0.141200000000     0.195900000000     0.143350000000     0.147      
H        H      0.127800000000     0.233600000000     0.128000000000     0.138      
C        C      0.072840000000     0.191650000000     0.117550000000     0.155      
H        H      0.080420000000     0.182200000000     0.093650000000    -0.039      
H        H      0.049320000000     0.209200000000     0.113150000000    -0.038      
C        C      0.079260000000     0.125100000000     0.133500000000     0.028      
H        H      0.112260000000     0.133500000000     0.143600000000    -0.003      
H        H      0.077480000000     0.114300000000     0.107900000000    -0.011      
C        C      0.060420000000     0.094250000000     0.156050000000    -0.242      
H        H      0.082220000000     0.075100000000     0.157950000000     0.058      
H        H      0.059360000000     0.105750000000     0.181000000000     0.068      
C        C      0.012060000000     0.075500000000     0.138850000000     0.083      
C        C      0.151280000000     0.455950000000     0.040200000000     0.406      
C        C      0.166060000000     0.416450000000     0.042750000000    -0.438      
H        H      0.165960000000     0.404300000000     0.017800000000     0.127      
H        H      0.198300000000     0.418700000000     0.056000000000     0.136      
C        C      0.135120000000     0.391300000000     0.061800000000     0.127      
H        H      0.137040000000     0.365000000000     0.052750000000    -0.028      
H        H      0.102500000000     0.396300000000     0.055050000000    -0.02       
C        C      0.119080000000     0.368950000000     0.122700000000     0.036      
H        H      0.086260000000     0.374100000000     0.118700000000    -0.002      
H        H      0.120340000000     0.343200000000     0.111600000000    -0          
C        C      0.136960000000     0.372100000000     0.163550000000    -0.261      
H        H      0.170240000000     0.368300000000     0.167800000000     0.071      
H        H      0.133720000000     0.397250000000     0.175100000000     0.075      
C        C      0.110220000000     0.343950000000     0.179500000000     0.086      
N        N      0.051420000000     0.158550000000     0.134650000000    -0.233      
H        H      0.019980000000     0.150550000000     0.121300000000     0.079      
H        H      0.048880000000     0.166800000000     0.159900000000     0.094      
N        N      0.176880000000     0.059550000000     0.125750000000    -0.245      
N        N      0.148080000000     0.396500000000     0.103850000000    -0.228      
H        H      0.143660000000     0.421950000000     0.112950000000     0.073      
H        H      0.181060000000     0.393500000000     0.110350000000     0.078      
N        N      0.089040000000     0.321150000000     0.192000000000    -0.253      
O        O      0.069820000000     0.223100000000     0.188950000000    -0.455      
O        O      0.146040000000     0.247100000000     0.200250000000    -0.486      
O        O      0.112600000000     0.463100000000     0.049500000000    -0.466      
O        O      0.178020000000     0.478950000000     0.026950000000    -0.47       
Ag       Ag     0.179504000000     0.224455000000     0.310175000000     0.48       
Ag       Ag     0.127030000000     0.286185000000     0.249835000000     0.459      
Ag       Ag     0.076418000000     0.482775000000     0.404720000000     0.469      
Ag       Ag     0.146558000000     0.025700000000     0.497000000000     0.488      
C        C      0.089420000000     0.271100000000     0.321000000000     0.414      
C        C      0.083260000000     0.287100000000     0.359100000000    -0.459      
H        H      0.058800000000     0.304100000000     0.356650000000     0.147      
H        H      0.072200000000     0.266400000000     0.372000000000     0.138      
C        C      0.127160000000     0.308350000000     0.382450000000     0.155      
H        H      0.119580000000     0.317800000000     0.406350000000    -0.039      
H        H      0.150680000000     0.290800000000     0.386850000000    -0.038      
C        C      0.120740000000     0.374900000000     0.366500000000     0.028      
H        H      0.087740000000     0.366500000000     0.356400000000    -0.003      
H        H      0.122520000000     0.385700000000     0.392100000000    -0.011      
C        C      0.139580000000     0.405750000000     0.343950000000    -0.242      
H        H      0.117780000000     0.424900000000     0.342050000000     0.058      
H        H      0.140640000000     0.394250000000     0.319000000000     0.068      
C        C      0.187940000000     0.424500000000     0.361150000000     0.083      
C        C      0.048720000000     0.044050000000     0.459800000000     0.406      
C        C      0.033940000000     0.083550000000     0.457250000000    -0.438      
H        H      0.034040000000     0.095700000000     0.482200000000     0.127      
H        H      0.001700000000     0.081300000000     0.444000000000     0.136      
C        C      0.064880000000     0.108700000000     0.438200000000     0.127      
H        H      0.062960000000     0.135000000000     0.447250000000    -0.028      
H        H      0.097500000000     0.103700000000     0.444950000000    -0.02       
C        C      0.080920000000     0.131050000000     0.377300000000     0.036      
H        H      0.113740000000     0.125900000000     0.381300000000    -0.002      
H        H      0.079660000000     0.156800000000     0.388400000000    -0          
C        C      0.063040000000     0.127900000000     0.336450000000    -0.261      
H        H      0.029760000000     0.131700000000     0.332200000000     0.071      
H        H      0.066280000000     0.102750000000     0.324900000000     0.075      
C        C      0.089780000000     0.156050000000     0.320500000000     0.086      
N        N      0.148580000000     0.341450000000     0.365350000000    -0.233      
H        H      0.180020000000     0.349450000000     0.378700000000     0.079      
H        H      0.151120000000     0.333200000000     0.340100000000     0.094      
N        N      0.023120000000     0.440450000000     0.374250000000    -0.245      
N        N      0.051920000000     0.103500000000     0.396150000000    -0.228      
H        H      0.056340000000     0.078050000000     0.387050000000     0.073      
H        H      0.018940000000     0.106500000000     0.389650000000     0.078      
N        N      0.110960000000     0.178850000000     0.308000000000    -0.253      
O        O      0.130180000000     0.276900000000     0.311050000000    -0.455      
O        O      0.053960000000     0.252900000000     0.299750000000    -0.486      
O        O      0.087400000000     0.036900000000     0.450500000000    -0.466      
O        O      0.021980000000     0.021050000000     0.473050000000    -0.47       
Ag       Ag     0.020496000000     0.275545000000     0.689825000000     0.481      
Ag       Ag     0.072970000000     0.213815000000     0.750165000000     0.46       
Ag       Ag     0.123582000000     0.017225000000     0.595280000000     0.47       
Ag       Ag     0.053442000000     0.474300000000     0.503000000000     0.489      
C        C      0.110580000000     0.228900000000     0.679000000000     0.414      
C        C      0.116740000000     0.212900000000     0.640900000000    -0.459      
H        H      0.141200000000     0.195900000000     0.643350000000     0.147      
H        H      0.127800000000     0.233600000000     0.628000000000     0.138      
C        C      0.072840000000     0.191650000000     0.617550000000     0.155      
H        H      0.080420000000     0.182200000000     0.593650000000    -0.039      
H        H      0.049320000000     0.209200000000     0.613150000000    -0.038      
C        C      0.079260000000     0.125100000000     0.633500000000     0.028      
H        H      0.112260000000     0.133500000000     0.643600000000    -0.003      
H        H      0.077480000000     0.114300000000     0.607900000000    -0.011      
C        C      0.060420000000     0.094250000000     0.656050000000    -0.242      
H        H      0.082220000000     0.075100000000     0.657950000000     0.058      
H        H      0.059360000000     0.105750000000     0.681000000000     0.068      
C        C      0.012060000000     0.075500000000     0.638850000000     0.083      
C        C      0.151280000000     0.455950000000     0.540200000000     0.406      
C        C      0.166060000000     0.416450000000     0.542750000000    -0.438      
H        H      0.165960000000     0.404300000000     0.517800000000     0.127      
H        H      0.198300000000     0.418700000000     0.556000000000     0.136      
C        C      0.135120000000     0.391300000000     0.561800000000     0.127      
H        H      0.137040000000     0.365000000000     0.552750000000    -0.028      
H        H      0.102500000000     0.396300000000     0.555050000000    -0.02       
C        C      0.119080000000     0.368950000000     0.622700000000     0.036      
H        H      0.086260000000     0.374100000000     0.618700000000    -0.002      
H        H      0.120340000000     0.343200000000     0.611600000000    -0          
C        C      0.136960000000     0.372100000000     0.663550000000    -0.261      
H        H      0.170240000000     0.368300000000     0.667800000000     0.071      
H        H      0.133720000000     0.397250000000     0.675100000000     0.075      
C        C      0.110220000000     0.343950000000     0.679500000000     0.086      
N        N      0.051420000000     0.158550000000     0.634650000000    -0.233      
H        H      0.019980000000     0.150550000000     0.621300000000     0.079      
H        H      0.048880000000     0.166800000000     0.659900000000     0.094      
N        N      0.176880000000     0.059550000000     0.625750000000    -0.245      
N        N      0.148080000000     0.396500000000     0.603850000000    -0.228      
H        H      0.143660000000     0.421950000000     0.612950000000     0.073      
H        H      0.181060000000     0.393500000000     0.610350000000     0.078      
N        N      0.089040000000     0.321150000000     0.692000000000    -0.253      
O        O      0.069820000000     0.223100000000     0.688950000000    -0.455      
O        O      0.146040000000     0.247100000000     0.700250000000    -0.486      
O        O      0.112600000000     0.463100000000     0.549500000000    -0.466      
O        O      0.178020000000     0.478950000000     0.526950000000    -0.47       
Ag       Ag     0.179504000000     0.224455000000     0.810175000000     0.48       
Ag       Ag     0.127030000000     0.286185000000     0.749835000000     0.459      
Ag       Ag     0.076418000000     0.482775000000     0.904720000000     0.469      
Ag       Ag     0.146558000000     0.025700000000     0.997000000000     0.488      
C        C      0.089420000000     0.271100000000     0.821000000000     0.414      
C        C      0.083260000000     0.287100000000     0.859100000000    -0.459      
H        H      0.058800000000     0.304100000000     0.856650000000     0.147      
H        H      0.072200000000     0.266400000000     0.872000000000     0.138      
C        C      0.127160000000     0.308350000000     0.882450000000     0.155      
H        H      0.119580000000     0.317800000000     0.906350000000    -0.039      
H        H      0.150680000000     0.290800000000     0.886850000000    -0.038      
C        C      0.120740000000     0.374900000000     0.866500000000     0.028      
H        H      0.087740000000     0.366500000000     0.856400000000    -0.003      
H        H      0.122520000000     0.385700000000     0.892100000000    -0.011      
C        C      0.139580000000     0.405750000000     0.843950000000    -0.242      
H        H      0.117780000000     0.424900000000     0.842050000000     0.058      
H        H      0.140640000000     0.394250000000     0.819000000000     0.068      
C        C      0.187940000000     0.424500000000     0.861150000000     0.083      
C        C      0.048720000000     0.044050000000     0.959800000000     0.406      
C        C      0.033940000000     0.083550000000     0.957250000000    -0.438      
H        H      0.034040000000     0.095700000000     0.982200000000     0.127      
H        H      0.001700000000     0.081300000000     0.944000000000     0.136      
C        C      0.064880000000     0.108700000000     0.938200000000     0.127      
H        H      0.062960000000     0.135000000000     0.947250000000    -0.028      
H        H      0.097500000000     0.103700000000     0.944950000000    -0.02       
C        C      0.080920000000     0.131050000000     0.877300000000     0.036      
H        H      0.113740000000     0.125900000000     0.881300000000    -0.002      
H        H      0.079660000000     0.156800000000     0.888400000000    -0          
C        C      0.063040000000     0.127900000000     0.836450000000    -0.261      
H        H      0.029760000000     0.131700000000     0.832200000000     0.071      
H        H      0.066280000000     0.102750000000     0.824900000000     0.075      
C        C      0.089780000000     0.156050000000     0.820500000000     0.086      
N        N      0.148580000000     0.341450000000     0.865350000000    -0.233      
H        H      0.180020000000     0.349450000000     0.878700000000     0.079      
H        H      0.151120000000     0.333200000000     0.840100000000     0.094      
N        N      0.023120000000     0.440450000000     0.874250000000    -0.245      
N        N      0.051920000000     0.103500000000     0.896150000000    -0.228      
H        H      0.056340000000     0.078050000000     0.887050000000     0.073      
H        H      0.018940000000     0.106500000000     0.889650000000     0.078      
N        N      0.110960000000     0.178850000000     0.808000000000    -0.253      
O        O      0.130180000000     0.276900000000     0.811050000000    -0.455      
O        O      0.053960000000     0.252900000000     0.799750000000    -0.486      
O        O      0.087400000000     0.036900000000     0.950500000000    -0.466      
O        O      0.021980000000     0.021050000000     0.973050000000    -0.47       
Ag       Ag     0.020496000000     0.775545000000     0.189825000000     0.481      
Ag       Ag     0.072970000000     0.713815000000     0.250165000000     0.46       
Ag       Ag     0.123582000000     0.517225000000     0.095280000000     0.47       
Ag       Ag     0.053442000000     0.974300000000     0.003000000000     0.489      
C        C      0.110580000000     0.728900000000     0.179000000000     0.414      
C        C      0.116740000000     0.712900000000     0.140900000000    -0.459      
H        H      0.141200000000     0.695900000000     0.143350000000     0.147      
H        H      0.127800000000     0.733600000000     0.128000000000     0.138      
C        C      0.072840000000     0.691650000000     0.117550000000     0.155      
H        H      0.080420000000     0.682200000000     0.093650000000    -0.039      
H        H      0.049320000000     0.709200000000     0.113150000000    -0.038      
C        C      0.079260000000     0.625100000000     0.133500000000     0.028      
H        H      0.112260000000     0.633500000000     0.143600000000    -0.003      
H        H      0.077480000000     0.614300000000     0.107900000000    -0.011      
C        C      0.060420000000     0.594250000000     0.156050000000    -0.242      
H        H      0.082220000000     0.575100000000     0.157950000000     0.058      
H        H      0.059360000000     0.605750000000     0.181000000000     0.068      
C        C      0.012060000000     0.575500000000     0.138850000000     0.083      
C        C      0.151280000000     0.955950000000     0.040200000000     0.406      
C        C      0.166060000000     0.916450000000     0.042750000000    -0.438      
H        H      0.165960000000     0.904300000000     0.017800000000     0.127      
H        H      0.198300000000     0.918700000000     0.056000000000     0.136      
C        C      0.135120000000     0.891300000000     0.061800000000     0.127      
H        H      0.137040000000     0.865000000000     0.052750000000    -0.028      
H        H      0.102500000000     0.896300000000     0.055050000000    -0.02       
C        C      0.119080000000     0.868950000000     0.122700000000     0.036      
H        H      0.086260000000     0.874100000000     0.118700000000    -0.002      
H        H      0.120340000000     0.843200000000     0.111600000000    -0          
C        C      0.136960000000     0.872100000000     0.163550000000    -0.261      
H        H      0.170240000000     0.868300000000     0.167800000000     0.071      
H        H      0.133720000000     0.897250000000     0.175100000000     0.075      
C        C      0.110220000000     0.843950000000     0.179500000000     0.086      
N        N      0.051420000000     0.658550000000     0.134650000000    -0.233      
H        H      0.019980000000     0.650550000000     0.121300000000     0.079      
H        H      0.048880000000     0.666800000000     0.159900000000     0.094      
N        N      0.176880000000     0.559550000000     0.125750000000    -0.245      
N        N      0.148080000000     0.896500000000     0.103850000000    -0.228      
H        H      0.143660000000     0.921950000000     0.112950000000     0.073      
H        H      0.181060000000     0.893500000000     0.110350000000     0.078      
N        N      0.089040000000     0.821150000000     0.192000000000    -0.253      
O        O      0.069820000000     0.723100000000     0.188950000000    -0.455      
O        O      0.146040000000     0.747100000000     0.200250000000    -0.486      
O        O      0.112600000000     0.963100000000     0.049500000000    -0.466      
O        O      0.178020000000     0.978950000000     0.026950000000    -0.47       
Ag       Ag     0.179504000000     0.724455000000     0.310175000000     0.48       
Ag       Ag     0.127030000000     0.786185000000     0.249835000000     0.459      
Ag       Ag     0.076418000000     0.982775000000     0.404720000000     0.469      
Ag       Ag     0.146558000000     0.525700000000     0.497000000000     0.488      
C        C      0.089420000000     0.771100000000     0.321000000000     0.414      
C        C      0.083260000000     0.787100000000     0.359100000000    -0.459      
H        H      0.058800000000     0.804100000000     0.356650000000     0.147      
H        H      0.072200000000     0.766400000000     0.372000000000     0.138      
C        C      0.127160000000     0.808350000000     0.382450000000     0.155      
H        H      0.119580000000     0.817800000000     0.406350000000    -0.039      
H        H      0.150680000000     0.790800000000     0.386850000000    -0.038      
C        C      0.120740000000     0.874900000000     0.366500000000     0.028      
H        H      0.087740000000     0.866500000000     0.356400000000    -0.003      
H        H      0.122520000000     0.885700000000     0.392100000000    -0.011      
C        C      0.139580000000     0.905750000000     0.343950000000    -0.242      
H        H      0.117780000000     0.924900000000     0.342050000000     0.058      
H        H      0.140640000000     0.894250000000     0.319000000000     0.068      
C        C      0.187940000000     0.924500000000     0.361150000000     0.083      
C        C      0.048720000000     0.544050000000     0.459800000000     0.406      
C        C      0.033940000000     0.583550000000     0.457250000000    -0.438      
H        H      0.034040000000     0.595700000000     0.482200000000     0.127      
H        H      0.001700000000     0.581300000000     0.444000000000     0.136      
C        C      0.064880000000     0.608700000000     0.438200000000     0.127      
H        H      0.062960000000     0.635000000000     0.447250000000    -0.028      
H        H      0.097500000000     0.603700000000     0.444950000000    -0.02       
C        C      0.080920000000     0.631050000000     0.377300000000     0.036      
H        H      0.113740000000     0.625900000000     0.381300000000    -0.002      
H        H      0.079660000000     0.656800000000     0.388400000000    -0          
C        C      0.063040000000     0.627900000000     0.336450000000    -0.261      
H        H      0.029760000000     0.631700000000     0.332200000000     0.071      
H        H      0.066280000000     0.602750000000     0.324900000000     0.075      
C        C      0.089780000000     0.656050000000     0.320500000000     0.086      
N        N      0.148580000000     0.841450000000     0.365350000000    -0.233      
H        H      0.180020000000     0.849450000000     0.378700000000     0.079      
H        H      0.151120000000     0.833200000000     0.340100000000     0.094      
N        N      0.023120000000     0.940450000000     0.374250000000    -0.245      
N        N      0.051920000000     0.603500000000     0.396150000000    -0.228      
H        H      0.056340000000     0.578050000000     0.387050000000     0.073      
H        H      0.018940000000     0.606500000000     0.389650000000     0.078      
N        N      0.110960000000     0.678850000000     0.308000000000    -0.253      
O        O      0.130180000000     0.776900000000     0.311050000000    -0.455      
O        O      0.053960000000     0.752900000000     0.299750000000    -0.486      
O        O      0.087400000000     0.536900000000     0.450500000000    -0.466      
O        O      0.021980000000     0.521050000000     0.473050000000    -0.47       
Ag       Ag     0.020496000000     0.775545000000     0.689825000000     0.481      
Ag       Ag     0.072970000000     0.713815000000     0.750165000000     0.46       
Ag       Ag     0.123582000000     0.517225000000     0.595280000000     0.47       
Ag       Ag     0.053442000000     0.974300000000     0.503000000000     0.489      
C        C      0.110580000000     0.728900000000     0.679000000000     0.414      
C        C      0.116740000000     0.712900000000     0.640900000000    -0.459      
H        H      0.141200000000     0.695900000000     0.643350000000     0.147      
H        H      0.127800000000     0.733600000000     0.628000000000     0.138      
C        C      0.072840000000     0.691650000000     0.617550000000     0.155      
H        H      0.080420000000     0.682200000000     0.593650000000    -0.039      
H        H      0.049320000000     0.709200000000     0.613150000000    -0.038      
C        C      0.079260000000     0.625100000000     0.633500000000     0.028      
H        H      0.112260000000     0.633500000000     0.643600000000    -0.003      
H        H      0.077480000000     0.614300000000     0.607900000000    -0.011      
C        C      0.060420000000     0.594250000000     0.656050000000    -0.242      
H        H      0.082220000000     0.575100000000     0.657950000000     0.058      
H        H      0.059360000000     0.605750000000     0.681000000000     0.068      
C        C      0.012060000000     0.575500000000     0.638850000000     0.083      
C        C      0.151280000000     0.955950000000     0.540200000000     0.406      
C        C      0.166060000000     0.916450000000     0.542750000000    -0.438      
H        H      0.165960000000     0.904300000000     0.517800000000     0.127      
H        H      0.198300000000     0.918700000000     0.556000000000     0.136      
C        C      0.135120000000     0.891300000000     0.561800000000     0.127      
H        H      0.137040000000     0.865000000000     0.552750000000    -0.028      
H        H      0.102500000000     0.896300000000     0.555050000000    -0.02       
C        C      0.119080000000     0.868950000000     0.622700000000     0.036      
H        H      0.086260000000     0.874100000000     0.618700000000    -0.002      
H        H      0.120340000000     0.843200000000     0.611600000000    -0          
C        C      0.136960000000     0.872100000000     0.663550000000    -0.261      
H        H      0.170240000000     0.868300000000     0.667800000000     0.071      
H        H      0.133720000000     0.897250000000     0.675100000000     0.075      
C        C      0.110220000000     0.843950000000     0.679500000000     0.086      
N        N      0.051420000000     0.658550000000     0.634650000000    -0.233      
H        H      0.019980000000     0.650550000000     0.621300000000     0.079      
H        H      0.048880000000     0.666800000000     0.659900000000     0.094      
N        N      0.176880000000     0.559550000000     0.625750000000    -0.245      
N        N      0.148080000000     0.896500000000     0.603850000000    -0.228      
H        H      0.143660000000     0.921950000000     0.612950000000     0.073      
H        H      0.181060000000     0.893500000000     0.610350000000     0.078      
N        N      0.089040000000     0.821150000000     0.692000000000    -0.253      
O        O      0.069820000000     0.723100000000     0.688950000000    -0.455      
O        O      0.146040000000     0.747100000000     0.700250000000    -0.486      
O        O      0.112600000000     0.963100000000     0.549500000000    -0.466      
O        O      0.178020000000     0.978950000000     0.526950000000    -0.47       
Ag       Ag     0.179504000000     0.724455000000     0.810175000000     0.48       
Ag       Ag     0.127030000000     0.786185000000     0.749835000000     0.459      
Ag       Ag     0.076418000000     0.982775000000     0.904720000000     0.469      
Ag       Ag     0.146558000000     0.525700000000     0.997000000000     0.488      
C        C      0.089420000000     0.771100000000     0.821000000000     0.414      
C        C      0.083260000000     0.787100000000     0.859100000000    -0.459      
H        H      0.058800000000     0.804100000000     0.856650000000     0.147      
H        H      0.072200000000     0.766400000000     0.872000000000     0.138      
C        C      0.127160000000     0.808350000000     0.882450000000     0.155      
H        H      0.119580000000     0.817800000000     0.906350000000    -0.039      
H        H      0.150680000000     0.790800000000     0.886850000000    -0.038      
C        C      0.120740000000     0.874900000000     0.866500000000     0.028      
H        H      0.087740000000     0.866500000000     0.856400000000    -0.003      
H        H      0.122520000000     0.885700000000     0.892100000000    -0.011      
C        C      0.139580000000     0.905750000000     0.843950000000    -0.242      
H        H      0.117780000000     0.924900000000     0.842050000000     0.058      
H        H      0.140640000000     0.894250000000     0.819000000000     0.068      
C        C      0.187940000000     0.924500000000     0.861150000000     0.083      
C        C      0.048720000000     0.544050000000     0.959800000000     0.406      
C        C      0.033940000000     0.583550000000     0.957250000000    -0.438      
H        H      0.034040000000     0.595700000000     0.982200000000     0.127      
H        H      0.001700000000     0.581300000000     0.944000000000     0.136      
C        C      0.064880000000     0.608700000000     0.938200000000     0.127      
H        H      0.062960000000     0.635000000000     0.947250000000    -0.028      
H        H      0.097500000000     0.603700000000     0.944950000000    -0.02       
C        C      0.080920000000     0.631050000000     0.877300000000     0.036      
H        H      0.113740000000     0.625900000000     0.881300000000    -0.002      
H        H      0.079660000000     0.656800000000     0.888400000000    -0          
C        C      0.063040000000     0.627900000000     0.836450000000    -0.261      
H        H      0.029760000000     0.631700000000     0.832200000000     0.071      
H        H      0.066280000000     0.602750000000     0.824900000000     0.075      
C        C      0.089780000000     0.656050000000     0.820500000000     0.086      
N        N      0.148580000000     0.841450000000     0.865350000000    -0.233      
H        H      0.180020000000     0.849450000000     0.878700000000     0.079      
H        H      0.151120000000     0.833200000000     0.840100000000     0.094      
N        N      0.023120000000     0.940450000000     0.874250000000    -0.245      
N        N      0.051920000000     0.603500000000     0.896150000000    -0.228      
H        H      0.056340000000     0.578050000000     0.887050000000     0.073      
H        H      0.018940000000     0.606500000000     0.889650000000     0.078      
N        N      0.110960000000     0.678850000000     0.808000000000    -0.253      
O        O      0.130180000000     0.776900000000     0.811050000000    -0.455      
O        O      0.053960000000     0.752900000000     0.799750000000    -0.486      
O        O      0.087400000000     0.536900000000     0.950500000000    -0.466      
O        O      0.021980000000     0.521050000000     0.973050000000    -0.47       
Ag       Ag     0.220496000000     0.275545000000     0.189825000000     0.481      
Ag       Ag     0.272970000000     0.213815000000     0.250165000000     0.46       
Ag       Ag     0.323582000000     0.017225000000     0.095280000000     0.47       
Ag       Ag     0.253442000000     0.474300000000     0.003000000000     0.489      
C        C      0.310580000000     0.228900000000     0.179000000000     0.414      
C        C      0.316740000000     0.212900000000     0.140900000000    -0.459      
H        H      0.341200000000     0.195900000000     0.143350000000     0.147      
H        H      0.327800000000     0.233600000000     0.128000000000     0.138      
C        C      0.272840000000     0.191650000000     0.117550000000     0.155      
H        H      0.280420000000     0.182200000000     0.093650000000    -0.039      
H        H      0.249320000000     0.209200000000     0.113150000000    -0.038      
C        C      0.279260000000     0.125100000000     0.133500000000     0.028      
H        H      0.312260000000     0.133500000000     0.143600000000    -0.003      
H        H      0.277480000000     0.114300000000     0.107900000000    -0.011      
C        C      0.260420000000     0.094250000000     0.156050000000    -0.242      
H        H      0.282220000000     0.075100000000     0.157950000000     0.058      
H        H      0.259360000000     0.105750000000     0.181000000000     0.068      
C        C      0.212060000000     0.075500000000     0.138850000000     0.083      
C        C      0.351280000000     0.455950000000     0.040200000000     0.406      
C        C      0.366060000000     0.416450000000     0.042750000000    -0.438      
H        H      0.365960000000     0.404300000000     0.017800000000     0.127      
H        H      0.398300000000     0.418700000000     0.056000000000     0.136      
C        C      0.335120000000     0.391300000000     0.061800000000     0.127      
H        H      0.337040000000     0.365000000000     0.052750000000    -0.028      
H        H      0.302500000000     0.396300000000     0.055050000000    -0.02       
C        C      0.319080000000     0.368950000000     0.122700000000     0.036      
H        H      0.286260000000     0.374100000000     0.118700000000    -0.002      
H        H      0.320340000000     0.343200000000     0.111600000000    -0          
C        C      0.336960000000     0.372100000000     0.163550000000    -0.261      
H        H      0.370240000000     0.368300000000     0.167800000000     0.071      
H        H      0.333720000000     0.397250000000     0.175100000000     0.075      
C        C      0.310220000000     0.343950000000     0.179500000000     0.086      
N        N      0.251420000000     0.158550000000     0.134650000000    -0.233      
H        H      0.219980000000     0.150550000000     0.121300000000     0.079      
H        H      0.248880000000     0.166800000000     0.159900000000     0.094      
N        N      0.376880000000     0.059550000000     0.125750000000    -0.245      
N        N      0.348080000000     0.396500000000     0.103850000000    -0.228      
H        H      0.343660000000     0.421950000000     0.112950000000     0.073      
H        H      0.381060000000     0.393500000000     0.110350000000     0.078      
N        N      0.289040000000     0.321150000000     0.192000000000    -0.253      
O        O      0.269820000000     0.223100000000     0.188950000000    -0.455      
O        O      0.346040000000     0.247100000000     0.200250000000    -0.486      
O        O      0.312600000000     0.463100000000     0.049500000000    -0.466      
O        O      0.378020000000     0.478950000000     0.026950000000    -0.47       
Ag       Ag     0.379504000000     0.224455000000     0.310175000000     0.48       
Ag       Ag     0.327030000000     0.286185000000     0.249835000000     0.459      
Ag       Ag     0.276418000000     0.482775000000     0.404720000000     0.469      
Ag       Ag     0.346558000000     0.025700000000     0.497000000000     0.488      
C        C      0.289420000000     0.271100000000     0.321000000000     0.414      
C        C      0.283260000000     0.287100000000     0.359100000000    -0.459      
H        H      0.258800000000     0.304100000000     0.356650000000     0.147      
H        H      0.272200000000     0.266400000000     0.372000000000     0.138      
C        C      0.327160000000     0.308350000000     0.382450000000     0.155      
H        H      0.319580000000     0.317800000000     0.406350000000    -0.039      
H        H      0.350680000000     0.290800000000     0.386850000000    -0.038      
C        C      0.320740000000     0.374900000000     0.366500000000     0.028      
H        H      0.287740000000     0.366500000000     0.356400000000    -0.003      
H        H      0.322520000000     0.385700000000     0.392100000000    -0.011      
C        C      0.339580000000     0.405750000000     0.343950000000    -0.242      
H        H      0.317780000000     0.424900000000     0.342050000000     0.058      
H        H      0.340640000000     0.394250000000     0.319000000000     0.068      
C        C      0.387940000000     0.424500000000     0.361150000000     0.083      
C        C      0.248720000000     0.044050000000     0.459800000000     0.406      
C        C      0.233940000000     0.083550000000     0.457250000000    -0.438      
H        H      0.234040000000     0.095700000000     0.482200000000     0.127      
H        H      0.201700000000     0.081300000000     0.444000000000     0.136      
C        C      0.264880000000     0.108700000000     0.438200000000     0.127      
H        H      0.262960000000     0.135000000000     0.447250000000    -0.028      
H        H      0.297500000000     0.103700000000     0.444950000000    -0.02       
C        C      0.280920000000     0.131050000000     0.377300000000     0.036      
H        H      0.313740000000     0.125900000000     0.381300000000    -0.002      
H        H      0.279660000000     0.156800000000     0.388400000000    -0          
C        C      0.263040000000     0.127900000000     0.336450000000    -0.261      
H        H      0.229760000000     0.131700000000     0.332200000000     0.071      
H        H      0.266280000000     0.102750000000     0.324900000000     0.075      
C        C      0.289780000000     0.156050000000     0.320500000000     0.086      
N        N      0.348580000000     0.341450000000     0.365350000000    -0.233      
H        H      0.380020000000     0.349450000000     0.378700000000     0.079      
H        H      0.351120000000     0.333200000000     0.340100000000     0.094      
N        N      0.223120000000     0.440450000000     0.374250000000    -0.245      
N        N      0.251920000000     0.103500000000     0.396150000000    -0.228      
H        H      0.256340000000     0.078050000000     0.387050000000     0.073      
H        H      0.218940000000     0.106500000000     0.389650000000     0.078      
N        N      0.310960000000     0.178850000000     0.308000000000    -0.253      
O        O      0.330180000000     0.276900000000     0.311050000000    -0.455      
O        O      0.253960000000     0.252900000000     0.299750000000    -0.486      
O        O      0.287400000000     0.036900000000     0.450500000000    -0.466      
O        O      0.221980000000     0.021050000000     0.473050000000    -0.47       
Ag       Ag     0.220496000000     0.275545000000     0.689825000000     0.481      
Ag       Ag     0.272970000000     0.213815000000     0.750165000000     0.46       
Ag       Ag     0.323582000000     0.017225000000     0.595280000000     0.47       
Ag       Ag     0.253442000000     0.474300000000     0.503000000000     0.489      
C        C      0.310580000000     0.228900000000     0.679000000000     0.414      
C        C      0.316740000000     0.212900000000     0.640900000000    -0.459      
H        H      0.341200000000     0.195900000000     0.643350000000     0.147      
H        H      0.327800000000     0.233600000000     0.628000000000     0.138      
C        C      0.272840000000     0.191650000000     0.617550000000     0.155      
H        H      0.280420000000     0.182200000000     0.593650000000    -0.039      
H        H      0.249320000000     0.209200000000     0.613150000000    -0.038      
C        C      0.279260000000     0.125100000000     0.633500000000     0.028      
H        H      0.312260000000     0.133500000000     0.643600000000    -0.003      
H        H      0.277480000000     0.114300000000     0.607900000000    -0.011      
C        C      0.260420000000     0.094250000000     0.656050000000    -0.242      
H        H      0.282220000000     0.075100000000     0.657950000000     0.058      
H        H      0.259360000000     0.105750000000     0.681000000000     0.068      
C        C      0.212060000000     0.075500000000     0.638850000000     0.083      
C        C      0.351280000000     0.455950000000     0.540200000000     0.406      
C        C      0.366060000000     0.416450000000     0.542750000000    -0.438      
H        H      0.365960000000     0.404300000000     0.517800000000     0.127      
H        H      0.398300000000     0.418700000000     0.556000000000     0.136      
C        C      0.335120000000     0.391300000000     0.561800000000     0.127      
H        H      0.337040000000     0.365000000000     0.552750000000    -0.028      
H        H      0.302500000000     0.396300000000     0.555050000000    -0.02       
C        C      0.319080000000     0.368950000000     0.622700000000     0.036      
H        H      0.286260000000     0.374100000000     0.618700000000    -0.002      
H        H      0.320340000000     0.343200000000     0.611600000000    -0          
C        C      0.336960000000     0.372100000000     0.663550000000    -0.261      
H        H      0.370240000000     0.368300000000     0.667800000000     0.071      
H        H      0.333720000000     0.397250000000     0.675100000000     0.075      
C        C      0.310220000000     0.343950000000     0.679500000000     0.086      
N        N      0.251420000000     0.158550000000     0.634650000000    -0.233      
H        H      0.219980000000     0.150550000000     0.621300000000     0.079      
H        H      0.248880000000     0.166800000000     0.659900000000     0.094      
N        N      0.376880000000     0.059550000000     0.625750000000    -0.245      
N        N      0.348080000000     0.396500000000     0.603850000000    -0.228      
H        H      0.343660000000     0.421950000000     0.612950000000     0.073      
H        H      0.381060000000     0.393500000000     0.610350000000     0.078      
N        N      0.289040000000     0.321150000000     0.692000000000    -0.253      
O        O      0.269820000000     0.223100000000     0.688950000000    -0.455      
O        O      0.346040000000     0.247100000000     0.700250000000    -0.486      
O        O      0.312600000000     0.463100000000     0.549500000000    -0.466      
O        O      0.378020000000     0.478950000000     0.526950000000    -0.47       
Ag       Ag     0.379504000000     0.224455000000     0.810175000000     0.48       
Ag       Ag     0.327030000000     0.286185000000     0.749835000000     0.459      
Ag       Ag     0.276418000000     0.482775000000     0.904720000000     0.469      
Ag       Ag     0.346558000000     0.025700000000     0.997000000000     0.488      
C        C      0.289420000000     0.271100000000     0.821000000000     0.414      
C        C      0.283260000000     0.287100000000     0.859100000000    -0.459      
H        H      0.258800000000     0.304100000000     0.856650000000     0.147      
H        H      0.272200000000     0.266400000000     0.872000000000     0.138      
C        C      0.327160000000     0.308350000000     0.882450000000     0.155      
H        H      0.319580000000     0.317800000000     0.906350000000    -0.039      
H        H      0.350680000000     0.290800000000     0.886850000000    -0.038      
C        C      0.320740000000     0.374900000000     0.866500000000     0.028      
H        H      0.287740000000     0.366500000000     0.856400000000    -0.003      
H        H      0.322520000000     0.385700000000     0.892100000000    -0.011      
C        C      0.339580000000     0.405750000000     0.843950000000    -0.242      
H        H      0.317780000000     0.424900000000     0.842050000000     0.058      
H        H      0.340640000000     0.394250000000     0.819000000000     0.068      
C        C      0.387940000000     0.424500000000     0.861150000000     0.083      
C        C      0.248720000000     0.044050000000     0.959800000000     0.406      
C        C      0.233940000000     0.083550000000     0.957250000000    -0.438      
H        H      0.234040000000     0.095700000000     0.982200000000     0.127      
H        H      0.201700000000     0.081300000000     0.944000000000     0.136      
C        C      0.264880000000     0.108700000000     0.938200000000     0.127      
H        H      0.262960000000     0.135000000000     0.947250000000    -0.028      
H        H      0.297500000000     0.103700000000     0.944950000000    -0.02       
C        C      0.280920000000     0.131050000000     0.877300000000     0.036      
H        H      0.313740000000     0.125900000000     0.881300000000    -0.002      
H        H      0.279660000000     0.156800000000     0.888400000000    -0          
C        C      0.263040000000     0.127900000000     0.836450000000    -0.261      
H        H      0.229760000000     0.131700000000     0.832200000000     0.071      
H        H      0.266280000000     0.102750000000     0.824900000000     0.075      
C        C      0.289780000000     0.156050000000     0.820500000000     0.086      
N        N      0.348580000000     0.341450000000     0.865350000000    -0.233      
H        H      0.380020000000     0.349450000000     0.878700000000     0.079      
H        H      0.351120000000     0.333200000000     0.840100000000     0.094      
N        N      0.223120000000     0.440450000000     0.874250000000    -0.245      
N        N      0.251920000000     0.103500000000     0.896150000000    -0.228      
H        H      0.256340000000     0.078050000000     0.887050000000     0.073      
H        H      0.218940000000     0.106500000000     0.889650000000     0.078      
N        N      0.310960000000     0.178850000000     0.808000000000    -0.253      
O        O      0.330180000000     0.276900000000     0.811050000000    -0.455      
O        O      0.253960000000     0.252900000000     0.799750000000    -0.486      
O        O      0.287400000000     0.036900000000     0.950500000000    -0.466      
O        O      0.221980000000     0.021050000000     0.973050000000    -0.47       
Ag       Ag     0.220496000000     0.775545000000     0.189825000000     0.481      
Ag       Ag     0.272970000000     0.713815000000     0.250165000000     0.46       
Ag       Ag     0.323582000000     0.517225000000     0.095280000000     0.47       
Ag       Ag     0.253442000000     0.974300000000     0.003000000000     0.489      
C        C      0.310580000000     0.728900000000     0.179000000000     0.414      
C        C      0.316740000000     0.712900000000     0.140900000000    -0.459      
H        H      0.341200000000     0.695900000000     0.143350000000     0.147      
H        H      0.327800000000     0.733600000000     0.128000000000     0.138      
C        C      0.272840000000     0.691650000000     0.117550000000     0.155      
H        H      0.280420000000     0.682200000000     0.093650000000    -0.039      
H        H      0.249320000000     0.709200000000     0.113150000000    -0.038      
C        C      0.279260000000     0.625100000000     0.133500000000     0.028      
H        H      0.312260000000     0.633500000000     0.143600000000    -0.003      
H        H      0.277480000000     0.614300000000     0.107900000000    -0.011      
C        C      0.260420000000     0.594250000000     0.156050000000    -0.242      
H        H      0.282220000000     0.575100000000     0.157950000000     0.058      
H        H      0.259360000000     0.605750000000     0.181000000000     0.068      
C        C      0.212060000000     0.575500000000     0.138850000000     0.083      
C        C      0.351280000000     0.955950000000     0.040200000000     0.406      
C        C      0.366060000000     0.916450000000     0.042750000000    -0.438      
H        H      0.365960000000     0.904300000000     0.017800000000     0.127      
H        H      0.398300000000     0.918700000000     0.056000000000     0.136      
C        C      0.335120000000     0.891300000000     0.061800000000     0.127      
H        H      0.337040000000     0.865000000000     0.052750000000    -0.028      
H        H      0.302500000000     0.896300000000     0.055050000000    -0.02       
C        C      0.319080000000     0.868950000000     0.122700000000     0.036      
H        H      0.286260000000     0.874100000000     0.118700000000    -0.002      
H        H      0.320340000000     0.843200000000     0.111600000000    -0          
C        C      0.336960000000     0.872100000000     0.163550000000    -0.261      
H        H      0.370240000000     0.868300000000     0.167800000000     0.071      
H        H      0.333720000000     0.897250000000     0.175100000000     0.075      
C        C      0.310220000000     0.843950000000     0.179500000000     0.086      
N        N      0.251420000000     0.658550000000     0.134650000000    -0.233      
H        H      0.219980000000     0.650550000000     0.121300000000     0.079      
H        H      0.248880000000     0.666800000000     0.159900000000     0.094      
N        N      0.376880000000     0.559550000000     0.125750000000    -0.245      
N        N      0.348080000000     0.896500000000     0.103850000000    -0.228      
H        H      0.343660000000     0.921950000000     0.112950000000     0.073      
H        H      0.381060000000     0.893500000000     0.110350000000     0.078      
N        N      0.289040000000     0.821150000000     0.192000000000    -0.253      
O        O      0.269820000000     0.723100000000     0.188950000000    -0.455      
O        O      0.346040000000     0.747100000000     0.200250000000    -0.486      
O        O      0.312600000000     0.963100000000     0.049500000000    -0.466      
O        O      0.378020000000     0.978950000000     0.026950000000    -0.47       
Ag       Ag     0.379504000000     0.724455000000     0.310175000000     0.48       
Ag       Ag     0.327030000000     0.786185000000     0.249835000000     0.459      
Ag       Ag     0.276418000000     0.982775000000     0.404720000000     0.469      
Ag       Ag     0.346558000000     0.525700000000     0.497000000000     0.488      
C        C      0.289420000000     0.771100000000     0.321000000000     0.414      
C        C      0.283260000000     0.787100000000     0.359100000000    -0.459      
H        H      0.258800000000     0.804100000000     0.356650000000     0.147      
H        H      0.272200000000     0.766400000000     0.372000000000     0.138      
C        C      0.327160000000     0.808350000000     0.382450000000     0.155      
H        H      0.319580000000     0.817800000000     0.406350000000    -0.039      
H        H      0.350680000000     0.790800000000     0.386850000000    -0.038      
C        C      0.320740000000     0.874900000000     0.366500000000     0.028      
H        H      0.287740000000     0.866500000000     0.356400000000    -0.003      
H        H      0.322520000000     0.885700000000     0.392100000000    -0.011      
C        C      0.339580000000     0.905750000000     0.343950000000    -0.242      
H        H      0.317780000000     0.924900000000     0.342050000000     0.058      
H        H      0.340640000000     0.894250000000     0.319000000000     0.068      
C        C      0.387940000000     0.924500000000     0.361150000000     0.083      
C        C      0.248720000000     0.544050000000     0.459800000000     0.406      
C        C      0.233940000000     0.583550000000     0.457250000000    -0.438      
H        H      0.234040000000     0.595700000000     0.482200000000     0.127      
H        H      0.201700000000     0.581300000000     0.444000000000     0.136      
C        C      0.264880000000     0.608700000000     0.438200000000     0.127      
H        H      0.262960000000     0.635000000000     0.447250000000    -0.028      
H        H      0.297500000000     0.603700000000     0.444950000000    -0.02       
C        C      0.280920000000     0.631050000000     0.377300000000     0.036      
H        H      0.313740000000     0.625900000000     0.381300000000    -0.002      
H        H      0.279660000000     0.656800000000     0.388400000000    -0          
C        C      0.263040000000     0.627900000000     0.336450000000    -0.261      
H        H      0.229760000000     0.631700000000     0.332200000000     0.071      
H        H      0.266280000000     0.602750000000     0.324900000000     0.075      
C        C      0.289780000000     0.656050000000     0.320500000000     0.086      
N        N      0.348580000000     0.841450000000     0.365350000000    -0.233      
H        H      0.380020000000     0.849450000000     0.378700000000     0.079      
H        H      0.351120000000     0.833200000000     0.340100000000     0.094      
N        N      0.223120000000     0.940450000000     0.374250000000    -0.245      
N        N      0.251920000000     0.603500000000     0.396150000000    -0.228      
H        H      0.256340000000     0.578050000000     0.387050000000     0.073      
H        H      0.218940000000     0.606500000000     0.389650000000     0.078      
N        N      0.310960000000     0.678850000000     0.308000000000    -0.253      
O        O      0.330180000000     0.776900000000     0.311050000000    -0.455      
O        O      0.253960000000     0.752900000000     0.299750000000    -0.486      
O        O      0.287400000000     0.536900000000     0.450500000000    -0.466      
O        O      0.221980000000     0.521050000000     0.473050000000    -0.47       
Ag       Ag     0.220496000000     0.775545000000     0.689825000000     0.481      
Ag       Ag     0.272970000000     0.713815000000     0.750165000000     0.46       
Ag       Ag     0.323582000000     0.517225000000     0.595280000000     0.47       
Ag       Ag     0.253442000000     0.974300000000     0.503000000000     0.489      
C        C      0.310580000000     0.728900000000     0.679000000000     0.414      
C        C      0.316740000000     0.712900000000     0.640900000000    -0.459      
H        H      0.341200000000     0.695900000000     0.643350000000     0.147      
H        H      0.327800000000     0.733600000000     0.628000000000     0.138      
C        C      0.272840000000     0.691650000000     0.617550000000     0.155      
H        H      0.280420000000     0.682200000000     0.593650000000    -0.039      
H        H      0.249320000000     0.709200000000     0.613150000000    -0.038      
C        C      0.279260000000     0.625100000000     0.633500000000     0.028      
H        H      0.312260000000     0.633500000000     0.643600000000    -0.003      
H        H      0.277480000000     0.614300000000     0.607900000000    -0.011      
C        C      0.260420000000     0.594250000000     0.656050000000    -0.242      
H        H      0.282220000000     0.575100000000     0.657950000000     0.058      
H        H      0.259360000000     0.605750000000     0.681000000000     0.068      
C        C      0.212060000000     0.575500000000     0.638850000000     0.083      
C        C      0.351280000000     0.955950000000     0.540200000000     0.406      
C        C      0.366060000000     0.916450000000     0.542750000000    -0.438      
H        H      0.365960000000     0.904300000000     0.517800000000     0.127      
H        H      0.398300000000     0.918700000000     0.556000000000     0.136      
C        C      0.335120000000     0.891300000000     0.561800000000     0.127      
H        H      0.337040000000     0.865000000000     0.552750000000    -0.028      
H        H      0.302500000000     0.896300000000     0.555050000000    -0.02       
C        C      0.319080000000     0.868950000000     0.622700000000     0.036      
H        H      0.286260000000     0.874100000000     0.618700000000    -0.002      
H        H      0.320340000000     0.843200000000     0.611600000000    -0          
C        C      0.336960000000     0.872100000000     0.663550000000    -0.261      
H        H      0.370240000000     0.868300000000     0.667800000000     0.071      
H        H      0.333720000000     0.897250000000     0.675100000000     0.075      
C        C      0.310220000000     0.843950000000     0.679500000000     0.086      
N        N      0.251420000000     0.658550000000     0.634650000000    -0.233      
H        H      0.219980000000     0.650550000000     0.621300000000     0.079      
H        H      0.248880000000     0.666800000000     0.659900000000     0.094      
N        N      0.376880000000     0.559550000000     0.625750000000    -0.245      
N        N      0.348080000000     0.896500000000     0.603850000000    -0.228      
H        H      0.343660000000     0.921950000000     0.612950000000     0.073      
H        H      0.381060000000     0.893500000000     0.610350000000     0.078      
N        N      0.289040000000     0.821150000000     0.692000000000    -0.253      
O        O      0.269820000000     0.723100000000     0.688950000000    -0.455      
O        O      0.346040000000     0.747100000000     0.700250000000    -0.486      
O        O      0.312600000000     0.963100000000     0.549500000000    -0.466      
O        O      0.378020000000     0.978950000000     0.526950000000    -0.47       
Ag       Ag     0.379504000000     0.724455000000     0.810175000000     0.48       
Ag       Ag     0.327030000000     0.786185000000     0.749835000000     0.459      
Ag       Ag     0.276418000000     0.982775000000     0.904720000000     0.469      
Ag       Ag     0.346558000000     0.525700000000     0.997000000000     0.488      
C        C      0.289420000000     0.771100000000     0.821000000000     0.414      
C        C      0.283260000000     0.787100000000     0.859100000000    -0.459      
H        H      0.258800000000     0.804100000000     0.856650000000     0.147      
H        H      0.272200000000     0.766400000000     0.872000000000     0.138      
C        C      0.327160000000     0.808350000000     0.882450000000     0.155      
H        H      0.319580000000     0.817800000000     0.906350000000    -0.039      
H        H      0.350680000000     0.790800000000     0.886850000000    -0.038      
C        C      0.320740000000     0.874900000000     0.866500000000     0.028      
H        H      0.287740000000     0.866500000000     0.856400000000    -0.003      
H        H      0.322520000000     0.885700000000     0.892100000000    -0.011      
C        C      0.339580000000     0.905750000000     0.843950000000    -0.242      
H        H      0.317780000000     0.924900000000     0.842050000000     0.058      
H        H      0.340640000000     0.894250000000     0.819000000000     0.068      
C        C      0.387940000000     0.924500000000     0.861150000000     0.083      
C        C      0.248720000000     0.544050000000     0.959800000000     0.406      
C        C      0.233940000000     0.583550000000     0.957250000000    -0.438      
H        H      0.234040000000     0.595700000000     0.982200000000     0.127      
H        H      0.201700000000     0.581300000000     0.944000000000     0.136      
C        C      0.264880000000     0.608700000000     0.938200000000     0.127      
H        H      0.262960000000     0.635000000000     0.947250000000    -0.028      
H        H      0.297500000000     0.603700000000     0.944950000000    -0.02       
C        C      0.280920000000     0.631050000000     0.877300000000     0.036      
H        H      0.313740000000     0.625900000000     0.881300000000    -0.002      
H        H      0.279660000000     0.656800000000     0.888400000000    -0          
C        C      0.263040000000     0.627900000000     0.836450000000    -0.261      
H        H      0.229760000000     0.631700000000     0.832200000000     0.071      
H        H      0.266280000000     0.602750000000     0.824900000000     0.075      
C        C      0.289780000000     0.656050000000     0.820500000000     0.086      
N        N      0.348580000000     0.841450000000     0.865350000000    -0.233      
H        H      0.380020000000     0.849450000000     0.878700000000     0.079      
H        H      0.351120000000     0.833200000000     0.840100000000     0.094      
N        N      0.223120000000     0.940450000000     0.874250000000    -0.245      
N        N      0.251920000000     0.603500000000     0.896150000000    -0.228      
H        H      0.256340000000     0.578050000000     0.887050000000     0.073      
H        H      0.218940000000     0.606500000000     0.889650000000     0.078      
N        N      0.310960000000     0.678850000000     0.808000000000    -0.253      
O        O      0.330180000000     0.776900000000     0.811050000000    -0.455      
O        O      0.253960000000     0.752900000000     0.799750000000    -0.486      
O        O      0.287400000000     0.536900000000     0.950500000000    -0.466      
O        O      0.221980000000     0.521050000000     0.973050000000    -0.47       
Ag       Ag     0.420496000000     0.275545000000     0.189825000000     0.481      
Ag       Ag     0.472970000000     0.213815000000     0.250165000000     0.46       
Ag       Ag     0.523582000000     0.017225000000     0.095280000000     0.47       
Ag       Ag     0.453442000000     0.474300000000     0.003000000000     0.489      
C        C      0.510580000000     0.228900000000     0.179000000000     0.414      
C        C      0.516740000000     0.212900000000     0.140900000000    -0.459      
H        H      0.541200000000     0.195900000000     0.143350000000     0.147      
H        H      0.527800000000     0.233600000000     0.128000000000     0.138      
C        C      0.472840000000     0.191650000000     0.117550000000     0.155      
H        H      0.480420000000     0.182200000000     0.093650000000    -0.039      
H        H      0.449320000000     0.209200000000     0.113150000000    -0.038      
C        C      0.479260000000     0.125100000000     0.133500000000     0.028      
H        H      0.512260000000     0.133500000000     0.143600000000    -0.003      
H        H      0.477480000000     0.114300000000     0.107900000000    -0.011      
C        C      0.460420000000     0.094250000000     0.156050000000    -0.242      
H        H      0.482220000000     0.075100000000     0.157950000000     0.058      
H        H      0.459360000000     0.105750000000     0.181000000000     0.068      
C        C      0.412060000000     0.075500000000     0.138850000000     0.083      
C        C      0.551280000000     0.455950000000     0.040200000000     0.406      
C        C      0.566060000000     0.416450000000     0.042750000000    -0.438      
H        H      0.565960000000     0.404300000000     0.017800000000     0.127      
H        H      0.598300000000     0.418700000000     0.056000000000     0.136      
C        C      0.535120000000     0.391300000000     0.061800000000     0.127      
H        H      0.537040000000     0.365000000000     0.052750000000    -0.028      
H        H      0.502500000000     0.396300000000     0.055050000000    -0.02       
C        C      0.519080000000     0.368950000000     0.122700000000     0.036      
H        H      0.486260000000     0.374100000000     0.118700000000    -0.002      
H        H      0.520340000000     0.343200000000     0.111600000000    -0          
C        C      0.536960000000     0.372100000000     0.163550000000    -0.261      
H        H      0.570240000000     0.368300000000     0.167800000000     0.071      
H        H      0.533720000000     0.397250000000     0.175100000000     0.075      
C        C      0.510220000000     0.343950000000     0.179500000000     0.086      
N        N      0.451420000000     0.158550000000     0.134650000000    -0.233      
H        H      0.419980000000     0.150550000000     0.121300000000     0.079      
H        H      0.448880000000     0.166800000000     0.159900000000     0.094      
N        N      0.576880000000     0.059550000000     0.125750000000    -0.245      
N        N      0.548080000000     0.396500000000     0.103850000000    -0.228      
H        H      0.543660000000     0.421950000000     0.112950000000     0.073      
H        H      0.581060000000     0.393500000000     0.110350000000     0.078      
N        N      0.489040000000     0.321150000000     0.192000000000    -0.253      
O        O      0.469820000000     0.223100000000     0.188950000000    -0.455      
O        O      0.546040000000     0.247100000000     0.200250000000    -0.486      
O        O      0.512600000000     0.463100000000     0.049500000000    -0.466      
O        O      0.578020000000     0.478950000000     0.026950000000    -0.47       
Ag       Ag     0.579504000000     0.224455000000     0.310175000000     0.48       
Ag       Ag     0.527030000000     0.286185000000     0.249835000000     0.459      
Ag       Ag     0.476418000000     0.482775000000     0.404720000000     0.469      
Ag       Ag     0.546558000000     0.025700000000     0.497000000000     0.488      
C        C      0.489420000000     0.271100000000     0.321000000000     0.414      
C        C      0.483260000000     0.287100000000     0.359100000000    -0.459      
H        H      0.458800000000     0.304100000000     0.356650000000     0.147      
H        H      0.472200000000     0.266400000000     0.372000000000     0.138      
C        C      0.527160000000     0.308350000000     0.382450000000     0.155      
H        H      0.519580000000     0.317800000000     0.406350000000    -0.039      
H        H      0.550680000000     0.290800000000     0.386850000000    -0.038      
C        C      0.520740000000     0.374900000000     0.366500000000     0.028      
H        H      0.487740000000     0.366500000000     0.356400000000    -0.003      
H        H      0.522520000000     0.385700000000     0.392100000000    -0.011      
C        C      0.539580000000     0.405750000000     0.343950000000    -0.242      
H        H      0.517780000000     0.424900000000     0.342050000000     0.058      
H        H      0.540640000000     0.394250000000     0.319000000000     0.068      
C        C      0.587940000000     0.424500000000     0.361150000000     0.083      
C        C      0.448720000000     0.044050000000     0.459800000000     0.406      
C        C      0.433940000000     0.083550000000     0.457250000000    -0.438      
H        H      0.434040000000     0.095700000000     0.482200000000     0.127      
H        H      0.401700000000     0.081300000000     0.444000000000     0.136      
C        C      0.464880000000     0.108700000000     0.438200000000     0.127      
H        H      0.462960000000     0.135000000000     0.447250000000    -0.028      
H        H      0.497500000000     0.103700000000     0.444950000000    -0.02       
C        C      0.480920000000     0.131050000000     0.377300000000     0.036      
H        H      0.513740000000     0.125900000000     0.381300000000    -0.002      
H        H      0.479660000000     0.156800000000     0.388400000000    -0          
C        C      0.463040000000     0.127900000000     0.336450000000    -0.261      
H        H      0.429760000000     0.131700000000     0.332200000000     0.071      
H        H      0.466280000000     0.102750000000     0.324900000000     0.075      
C        C      0.489780000000     0.156050000000     0.320500000000     0.086      
N        N      0.548580000000     0.341450000000     0.365350000000    -0.233      
H        H      0.580020000000     0.349450000000     0.378700000000     0.079      
H        H      0.551120000000     0.333200000000     0.340100000000     0.094      
N        N      0.423120000000     0.440450000000     0.374250000000    -0.245      
N        N      0.451920000000     0.103500000000     0.396150000000    -0.228      
H        H      0.456340000000     0.078050000000     0.387050000000     0.073      
H        H      0.418940000000     0.106500000000     0.389650000000     0.078      
N        N      0.510960000000     0.178850000000     0.308000000000    -0.253      
O        O      0.530180000000     0.276900000000     0.311050000000    -0.455      
O        O      0.453960000000     0.252900000000     0.299750000000    -0.486      
O        O      0.487400000000     0.036900000000     0.450500000000    -0.466      
O        O      0.421980000000     0.021050000000     0.473050000000    -0.47       
Ag       Ag     0.420496000000     0.275545000000     0.689825000000     0.481      
Ag       Ag     0.472970000000     0.213815000000     0.750165000000     0.46       
Ag       Ag     0.523582000000     0.017225000000     0.595280000000     0.47       
Ag       Ag     0.453442000000     0.474300000000     0.503000000000     0.489      
C        C      0.510580000000     0.228900000000     0.679000000000     0.414      
C        C      0.516740000000     0.212900000000     0.640900000000    -0.459      
H        H      0.541200000000     0.195900000000     0.643350000000     0.147      
H        H      0.527800000000     0.233600000000     0.628000000000     0.138      
C        C      0.472840000000     0.191650000000     0.617550000000     0.155      
H        H      0.480420000000     0.182200000000     0.593650000000    -0.039      
H        H      0.449320000000     0.209200000000     0.613150000000    -0.038      
C        C      0.479260000000     0.125100000000     0.633500000000     0.028      
H        H      0.512260000000     0.133500000000     0.643600000000    -0.003      
H        H      0.477480000000     0.114300000000     0.607900000000    -0.011      
C        C      0.460420000000     0.094250000000     0.656050000000    -0.242      
H        H      0.482220000000     0.075100000000     0.657950000000     0.058      
H        H      0.459360000000     0.105750000000     0.681000000000     0.068      
C        C      0.412060000000     0.075500000000     0.638850000000     0.083      
C        C      0.551280000000     0.455950000000     0.540200000000     0.406      
C        C      0.566060000000     0.416450000000     0.542750000000    -0.438      
H        H      0.565960000000     0.404300000000     0.517800000000     0.127      
H        H      0.598300000000     0.418700000000     0.556000000000     0.136      
C        C      0.535120000000     0.391300000000     0.561800000000     0.127      
H        H      0.537040000000     0.365000000000     0.552750000000    -0.028      
H        H      0.502500000000     0.396300000000     0.555050000000    -0.02       
C        C      0.519080000000     0.368950000000     0.622700000000     0.036      
H        H      0.486260000000     0.374100000000     0.618700000000    -0.002      
H        H      0.520340000000     0.343200000000     0.611600000000    -0          
C        C      0.536960000000     0.372100000000     0.663550000000    -0.261      
H        H      0.570240000000     0.368300000000     0.667800000000     0.071      
H        H      0.533720000000     0.397250000000     0.675100000000     0.075      
C        C      0.510220000000     0.343950000000     0.679500000000     0.086      
N        N      0.451420000000     0.158550000000     0.634650000000    -0.233      
H        H      0.419980000000     0.150550000000     0.621300000000     0.079      
H        H      0.448880000000     0.166800000000     0.659900000000     0.094      
N        N      0.576880000000     0.059550000000     0.625750000000    -0.245      
N        N      0.548080000000     0.396500000000     0.603850000000    -0.228      
H        H      0.543660000000     0.421950000000     0.612950000000     0.073      
H        H      0.581060000000     0.393500000000     0.610350000000     0.078      
N        N      0.489040000000     0.321150000000     0.692000000000    -0.253      
O        O      0.469820000000     0.223100000000     0.688950000000    -0.455      
O        O      0.546040000000     0.247100000000     0.700250000000    -0.486      
O        O      0.512600000000     0.463100000000     0.549500000000    -0.466      
O        O      0.578020000000     0.478950000000     0.526950000000    -0.47       
Ag       Ag     0.579504000000     0.224455000000     0.810175000000     0.48       
Ag       Ag     0.527030000000     0.286185000000     0.749835000000     0.459      
Ag       Ag     0.476418000000     0.482775000000     0.904720000000     0.469      
Ag       Ag     0.546558000000     0.025700000000     0.997000000000     0.488      
C        C      0.489420000000     0.271100000000     0.821000000000     0.414      
C        C      0.483260000000     0.287100000000     0.859100000000    -0.459      
H        H      0.458800000000     0.304100000000     0.856650000000     0.147      
H        H      0.472200000000     0.266400000000     0.872000000000     0.138      
C        C      0.527160000000     0.308350000000     0.882450000000     0.155      
H        H      0.519580000000     0.317800000000     0.906350000000    -0.039      
H        H      0.550680000000     0.290800000000     0.886850000000    -0.038      
C        C      0.520740000000     0.374900000000     0.866500000000     0.028      
H        H      0.487740000000     0.366500000000     0.856400000000    -0.003      
H        H      0.522520000000     0.385700000000     0.892100000000    -0.011      
C        C      0.539580000000     0.405750000000     0.843950000000    -0.242      
H        H      0.517780000000     0.424900000000     0.842050000000     0.058      
H        H      0.540640000000     0.394250000000     0.819000000000     0.068      
C        C      0.587940000000     0.424500000000     0.861150000000     0.083      
C        C      0.448720000000     0.044050000000     0.959800000000     0.406      
C        C      0.433940000000     0.083550000000     0.957250000000    -0.438      
H        H      0.434040000000     0.095700000000     0.982200000000     0.127      
H        H      0.401700000000     0.081300000000     0.944000000000     0.136      
C        C      0.464880000000     0.108700000000     0.938200000000     0.127      
H        H      0.462960000000     0.135000000000     0.947250000000    -0.028      
H        H      0.497500000000     0.103700000000     0.944950000000    -0.02       
C        C      0.480920000000     0.131050000000     0.877300000000     0.036      
H        H      0.513740000000     0.125900000000     0.881300000000    -0.002      
H        H      0.479660000000     0.156800000000     0.888400000000    -0          
C        C      0.463040000000     0.127900000000     0.836450000000    -0.261      
H        H      0.429760000000     0.131700000000     0.832200000000     0.071      
H        H      0.466280000000     0.102750000000     0.824900000000     0.075      
C        C      0.489780000000     0.156050000000     0.820500000000     0.086      
N        N      0.548580000000     0.341450000000     0.865350000000    -0.233      
H        H      0.580020000000     0.349450000000     0.878700000000     0.079      
H        H      0.551120000000     0.333200000000     0.840100000000     0.094      
N        N      0.423120000000     0.440450000000     0.874250000000    -0.245      
N        N      0.451920000000     0.103500000000     0.896150000000    -0.228      
H        H      0.456340000000     0.078050000000     0.887050000000     0.073      
H        H      0.418940000000     0.106500000000     0.889650000000     0.078      
N        N      0.510960000000     0.178850000000     0.808000000000    -0.253      
O        O      0.530180000000     0.276900000000     0.811050000000    -0.455      
O        O      0.453960000000     0.252900000000     0.799750000000    -0.486      
O        O      0.487400000000     0.036900000000     0.950500000000    -0.466      
O        O      0.421980000000     0.021050000000     0.973050000000    -0.47       
Ag       Ag     0.420496000000     0.775545000000     0.189825000000     0.481      
Ag       Ag     0.472970000000     0.713815000000     0.250165000000     0.46       
Ag       Ag     0.523582000000     0.517225000000     0.095280000000     0.47       
Ag       Ag     0.453442000000     0.974300000000     0.003000000000     0.489      
C        C      0.510580000000     0.728900000000     0.179000000000     0.414      
C        C      0.516740000000     0.712900000000     0.140900000000    -0.459      
H        H      0.541200000000     0.695900000000     0.143350000000     0.147      
H        H      0.527800000000     0.733600000000     0.128000000000     0.138      
C        C      0.472840000000     0.691650000000     0.117550000000     0.155      
H        H      0.480420000000     0.682200000000     0.093650000000    -0.039      
H        H      0.449320000000     0.709200000000     0.113150000000    -0.038      
C        C      0.479260000000     0.625100000000     0.133500000000     0.028      
H        H      0.512260000000     0.633500000000     0.143600000000    -0.003      
H        H      0.477480000000     0.614300000000     0.107900000000    -0.011      
C        C      0.460420000000     0.594250000000     0.156050000000    -0.242      
H        H      0.482220000000     0.575100000000     0.157950000000     0.058      
H        H      0.459360000000     0.605750000000     0.181000000000     0.068      
C        C      0.412060000000     0.575500000000     0.138850000000     0.083      
C        C      0.551280000000     0.955950000000     0.040200000000     0.406      
C        C      0.566060000000     0.916450000000     0.042750000000    -0.438      
H        H      0.565960000000     0.904300000000     0.017800000000     0.127      
H        H      0.598300000000     0.918700000000     0.056000000000     0.136      
C        C      0.535120000000     0.891300000000     0.061800000000     0.127      
H        H      0.537040000000     0.865000000000     0.052750000000    -0.028      
H        H      0.502500000000     0.896300000000     0.055050000000    -0.02       
C        C      0.519080000000     0.868950000000     0.122700000000     0.036      
H        H      0.486260000000     0.874100000000     0.118700000000    -0.002      
H        H      0.520340000000     0.843200000000     0.111600000000    -0          
C        C      0.536960000000     0.872100000000     0.163550000000    -0.261      
H        H      0.570240000000     0.868300000000     0.167800000000     0.071      
H        H      0.533720000000     0.897250000000     0.175100000000     0.075      
C        C      0.510220000000     0.843950000000     0.179500000000     0.086      
N        N      0.451420000000     0.658550000000     0.134650000000    -0.233      
H        H      0.419980000000     0.650550000000     0.121300000000     0.079      
H        H      0.448880000000     0.666800000000     0.159900000000     0.094      
N        N      0.576880000000     0.559550000000     0.125750000000    -0.245      
N        N      0.548080000000     0.896500000000     0.103850000000    -0.228      
H        H      0.543660000000     0.921950000000     0.112950000000     0.073      
H        H      0.581060000000     0.893500000000     0.110350000000     0.078      
N        N      0.489040000000     0.821150000000     0.192000000000    -0.253      
O        O      0.469820000000     0.723100000000     0.188950000000    -0.455      
O        O      0.546040000000     0.747100000000     0.200250000000    -0.486      
O        O      0.512600000000     0.963100000000     0.049500000000    -0.466      
O        O      0.578020000000     0.978950000000     0.026950000000    -0.47       
Ag       Ag     0.579504000000     0.724455000000     0.310175000000     0.48       
Ag       Ag     0.527030000000     0.786185000000     0.249835000000     0.459      
Ag       Ag     0.476418000000     0.982775000000     0.404720000000     0.469      
Ag       Ag     0.546558000000     0.525700000000     0.497000000000     0.488      
C        C      0.489420000000     0.771100000000     0.321000000000     0.414      
C        C      0.483260000000     0.787100000000     0.359100000000    -0.459      
H        H      0.458800000000     0.804100000000     0.356650000000     0.147      
H        H      0.472200000000     0.766400000000     0.372000000000     0.138      
C        C      0.527160000000     0.808350000000     0.382450000000     0.155      
H        H      0.519580000000     0.817800000000     0.406350000000    -0.039      
H        H      0.550680000000     0.790800000000     0.386850000000    -0.038      
C        C      0.520740000000     0.874900000000     0.366500000000     0.028      
H        H      0.487740000000     0.866500000000     0.356400000000    -0.003      
H        H      0.522520000000     0.885700000000     0.392100000000    -0.011      
C        C      0.539580000000     0.905750000000     0.343950000000    -0.242      
H        H      0.517780000000     0.924900000000     0.342050000000     0.058      
H        H      0.540640000000     0.894250000000     0.319000000000     0.068      
C        C      0.587940000000     0.924500000000     0.361150000000     0.083      
C        C      0.448720000000     0.544050000000     0.459800000000     0.406      
C        C      0.433940000000     0.583550000000     0.457250000000    -0.438      
H        H      0.434040000000     0.595700000000     0.482200000000     0.127      
H        H      0.401700000000     0.581300000000     0.444000000000     0.136      
C        C      0.464880000000     0.608700000000     0.438200000000     0.127      
H        H      0.462960000000     0.635000000000     0.447250000000    -0.028      
H        H      0.497500000000     0.603700000000     0.444950000000    -0.02       
C        C      0.480920000000     0.631050000000     0.377300000000     0.036      
H        H      0.513740000000     0.625900000000     0.381300000000    -0.002      
H        H      0.479660000000     0.656800000000     0.388400000000    -0          
C        C      0.463040000000     0.627900000000     0.336450000000    -0.261      
H        H      0.429760000000     0.631700000000     0.332200000000     0.071      
H        H      0.466280000000     0.602750000000     0.324900000000     0.075      
C        C      0.489780000000     0.656050000000     0.320500000000     0.086      
N        N      0.548580000000     0.841450000000     0.365350000000    -0.233      
H        H      0.580020000000     0.849450000000     0.378700000000     0.079      
H        H      0.551120000000     0.833200000000     0.340100000000     0.094      
N        N      0.423120000000     0.940450000000     0.374250000000    -0.245      
N        N      0.451920000000     0.603500000000     0.396150000000    -0.228      
H        H      0.456340000000     0.578050000000     0.387050000000     0.073      
H        H      0.418940000000     0.606500000000     0.389650000000     0.078      
N        N      0.510960000000     0.678850000000     0.308000000000    -0.253      
O        O      0.530180000000     0.776900000000     0.311050000000    -0.455      
O        O      0.453960000000     0.752900000000     0.299750000000    -0.486      
O        O      0.487400000000     0.536900000000     0.450500000000    -0.466      
O        O      0.421980000000     0.521050000000     0.473050000000    -0.47       
Ag       Ag     0.420496000000     0.775545000000     0.689825000000     0.481      
Ag       Ag     0.472970000000     0.713815000000     0.750165000000     0.46       
Ag       Ag     0.523582000000     0.517225000000     0.595280000000     0.47       
Ag       Ag     0.453442000000     0.974300000000     0.503000000000     0.489      
C        C      0.510580000000     0.728900000000     0.679000000000     0.414      
C        C      0.516740000000     0.712900000000     0.640900000000    -0.459      
H        H      0.541200000000     0.695900000000     0.643350000000     0.147      
H        H      0.527800000000     0.733600000000     0.628000000000     0.138      
C        C      0.472840000000     0.691650000000     0.617550000000     0.155      
H        H      0.480420000000     0.682200000000     0.593650000000    -0.039      
H        H      0.449320000000     0.709200000000     0.613150000000    -0.038      
C        C      0.479260000000     0.625100000000     0.633500000000     0.028      
H        H      0.512260000000     0.633500000000     0.643600000000    -0.003      
H        H      0.477480000000     0.614300000000     0.607900000000    -0.011      
C        C      0.460420000000     0.594250000000     0.656050000000    -0.242      
H        H      0.482220000000     0.575100000000     0.657950000000     0.058      
H        H      0.459360000000     0.605750000000     0.681000000000     0.068      
C        C      0.412060000000     0.575500000000     0.638850000000     0.083      
C        C      0.551280000000     0.955950000000     0.540200000000     0.406      
C        C      0.566060000000     0.916450000000     0.542750000000    -0.438      
H        H      0.565960000000     0.904300000000     0.517800000000     0.127      
H        H      0.598300000000     0.918700000000     0.556000000000     0.136      
C        C      0.535120000000     0.891300000000     0.561800000000     0.127      
H        H      0.537040000000     0.865000000000     0.552750000000    -0.028      
H        H      0.502500000000     0.896300000000     0.555050000000    -0.02       
C        C      0.519080000000     0.868950000000     0.622700000000     0.036      
H        H      0.486260000000     0.874100000000     0.618700000000    -0.002      
H        H      0.520340000000     0.843200000000     0.611600000000    -0          
C        C      0.536960000000     0.872100000000     0.663550000000    -0.261      
H        H      0.570240000000     0.868300000000     0.667800000000     0.071      
H        H      0.533720000000     0.897250000000     0.675100000000     0.075      
C        C      0.510220000000     0.843950000000     0.679500000000     0.086      
N        N      0.451420000000     0.658550000000     0.634650000000    -0.233      
H        H      0.419980000000     0.650550000000     0.621300000000     0.079      
H        H      0.448880000000     0.666800000000     0.659900000000     0.094      
N        N      0.576880000000     0.559550000000     0.625750000000    -0.245      
N        N      0.548080000000     0.896500000000     0.603850000000    -0.228      
H        H      0.543660000000     0.921950000000     0.612950000000     0.073      
H        H      0.581060000000     0.893500000000     0.610350000000     0.078      
N        N      0.489040000000     0.821150000000     0.692000000000    -0.253      
O        O      0.469820000000     0.723100000000     0.688950000000    -0.455      
O        O      0.546040000000     0.747100000000     0.700250000000    -0.486      
O        O      0.512600000000     0.963100000000     0.549500000000    -0.466      
O        O      0.578020000000     0.978950000000     0.526950000000    -0.47       
Ag       Ag     0.579504000000     0.724455000000     0.810175000000     0.48       
Ag       Ag     0.527030000000     0.786185000000     0.749835000000     0.459      
Ag       Ag     0.476418000000     0.982775000000     0.904720000000     0.469      
Ag       Ag     0.546558000000     0.525700000000     0.997000000000     0.488      
C        C      0.489420000000     0.771100000000     0.821000000000     0.414      
C        C      0.483260000000     0.787100000000     0.859100000000    -0.459      
H        H      0.458800000000     0.804100000000     0.856650000000     0.147      
H        H      0.472200000000     0.766400000000     0.872000000000     0.138      
C        C      0.527160000000     0.808350000000     0.882450000000     0.155      
H        H      0.519580000000     0.817800000000     0.906350000000    -0.039      
H        H      0.550680000000     0.790800000000     0.886850000000    -0.038      
C        C      0.520740000000     0.874900000000     0.866500000000     0.028      
H        H      0.487740000000     0.866500000000     0.856400000000    -0.003      
H        H      0.522520000000     0.885700000000     0.892100000000    -0.011      
C        C      0.539580000000     0.905750000000     0.843950000000    -0.242      
H        H      0.517780000000     0.924900000000     0.842050000000     0.058      
H        H      0.540640000000     0.894250000000     0.819000000000     0.068      
C        C      0.587940000000     0.924500000000     0.861150000000     0.083      
C        C      0.448720000000     0.544050000000     0.959800000000     0.406      
C        C      0.433940000000     0.583550000000     0.957250000000    -0.438      
H        H      0.434040000000     0.595700000000     0.982200000000     0.127      
H        H      0.401700000000     0.581300000000     0.944000000000     0.136      
C        C      0.464880000000     0.608700000000     0.938200000000     0.127      
H        H      0.462960000000     0.635000000000     0.947250000000    -0.028      
H        H      0.497500000000     0.603700000000     0.944950000000    -0.02       
C        C      0.480920000000     0.631050000000     0.877300000000     0.036      
H        H      0.513740000000     0.625900000000     0.881300000000    -0.002      
H        H      0.479660000000     0.656800000000     0.888400000000    -0          
C        C      0.463040000000     0.627900000000     0.836450000000    -0.261      
H        H      0.429760000000     0.631700000000     0.832200000000     0.071      
H        H      0.466280000000     0.602750000000     0.824900000000     0.075      
C        C      0.489780000000     0.656050000000     0.820500000000     0.086      
N        N      0.548580000000     0.841450000000     0.865350000000    -0.233      
H        H      0.580020000000     0.849450000000     0.878700000000     0.079      
H        H      0.551120000000     0.833200000000     0.840100000000     0.094      
N        N      0.423120000000     0.940450000000     0.874250000000    -0.245      
N        N      0.451920000000     0.603500000000     0.896150000000    -0.228      
H        H      0.456340000000     0.578050000000     0.887050000000     0.073      
H        H      0.418940000000     0.606500000000     0.889650000000     0.078      
N        N      0.510960000000     0.678850000000     0.808000000000    -0.253      
O        O      0.530180000000     0.776900000000     0.811050000000    -0.455      
O        O      0.453960000000     0.752900000000     0.799750000000    -0.486      
O        O      0.487400000000     0.536900000000     0.950500000000    -0.466      
O        O      0.421980000000     0.521050000000     0.973050000000    -0.47       
Ag       Ag     0.620496000000     0.275545000000     0.189825000000     0.481      
Ag       Ag     0.672970000000     0.213815000000     0.250165000000     0.46       
Ag       Ag     0.723582000000     0.017225000000     0.095280000000     0.47       
Ag       Ag     0.653442000000     0.474300000000     0.003000000000     0.489      
C        C      0.710580000000     0.228900000000     0.179000000000     0.414      
C        C      0.716740000000     0.212900000000     0.140900000000    -0.459      
H        H      0.741200000000     0.195900000000     0.143350000000     0.147      
H        H      0.727800000000     0.233600000000     0.128000000000     0.138      
C        C      0.672840000000     0.191650000000     0.117550000000     0.155      
H        H      0.680420000000     0.182200000000     0.093650000000    -0.039      
H        H      0.649320000000     0.209200000000     0.113150000000    -0.038      
C        C      0.679260000000     0.125100000000     0.133500000000     0.028      
H        H      0.712260000000     0.133500000000     0.143600000000    -0.003      
H        H      0.677480000000     0.114300000000     0.107900000000    -0.011      
C        C      0.660420000000     0.094250000000     0.156050000000    -0.242      
H        H      0.682220000000     0.075100000000     0.157950000000     0.058      
H        H      0.659360000000     0.105750000000     0.181000000000     0.068      
C        C      0.612060000000     0.075500000000     0.138850000000     0.083      
C        C      0.751280000000     0.455950000000     0.040200000000     0.406      
C        C      0.766060000000     0.416450000000     0.042750000000    -0.438      
H        H      0.765960000000     0.404300000000     0.017800000000     0.127      
H        H      0.798300000000     0.418700000000     0.056000000000     0.136      
C        C      0.735120000000     0.391300000000     0.061800000000     0.127      
H        H      0.737040000000     0.365000000000     0.052750000000    -0.028      
H        H      0.702500000000     0.396300000000     0.055050000000    -0.02       
C        C      0.719080000000     0.368950000000     0.122700000000     0.036      
H        H      0.686260000000     0.374100000000     0.118700000000    -0.002      
H        H      0.720340000000     0.343200000000     0.111600000000    -0          
C        C      0.736960000000     0.372100000000     0.163550000000    -0.261      
H        H      0.770240000000     0.368300000000     0.167800000000     0.071      
H        H      0.733720000000     0.397250000000     0.175100000000     0.075      
C        C      0.710220000000     0.343950000000     0.179500000000     0.086      
N        N      0.651420000000     0.158550000000     0.134650000000    -0.233      
H        H      0.619980000000     0.150550000000     0.121300000000     0.079      
H        H      0.648880000000     0.166800000000     0.159900000000     0.094      
N        N      0.776880000000     0.059550000000     0.125750000000    -0.245      
N        N      0.748080000000     0.396500000000     0.103850000000    -0.228      
H        H      0.743660000000     0.421950000000     0.112950000000     0.073      
H        H      0.781060000000     0.393500000000     0.110350000000     0.078      
N        N      0.689040000000     0.321150000000     0.192000000000    -0.253      
O        O      0.669820000000     0.223100000000     0.188950000000    -0.455      
O        O      0.746040000000     0.247100000000     0.200250000000    -0.486      
O        O      0.712600000000     0.463100000000     0.049500000000    -0.466      
O        O      0.778020000000     0.478950000000     0.026950000000    -0.47       
Ag       Ag     0.779504000000     0.224455000000     0.310175000000     0.48       
Ag       Ag     0.727030000000     0.286185000000     0.249835000000     0.459      
Ag       Ag     0.676418000000     0.482775000000     0.404720000000     0.469      
Ag       Ag     0.746558000000     0.025700000000     0.497000000000     0.488      
C        C      0.689420000000     0.271100000000     0.321000000000     0.414      
C        C      0.683260000000     0.287100000000     0.359100000000    -0.459      
H        H      0.658800000000     0.304100000000     0.356650000000     0.147      
H        H      0.672200000000     0.266400000000     0.372000000000     0.138      
C        C      0.727160000000     0.308350000000     0.382450000000     0.155      
H        H      0.719580000000     0.317800000000     0.406350000000    -0.039      
H        H      0.750680000000     0.290800000000     0.386850000000    -0.038      
C        C      0.720740000000     0.374900000000     0.366500000000     0.028      
H        H      0.687740000000     0.366500000000     0.356400000000    -0.003      
H        H      0.722520000000     0.385700000000     0.392100000000    -0.011      
C        C      0.739580000000     0.405750000000     0.343950000000    -0.242      
H        H      0.717780000000     0.424900000000     0.342050000000     0.058      
H        H      0.740640000000     0.394250000000     0.319000000000     0.068      
C        C      0.787940000000     0.424500000000     0.361150000000     0.083      
C        C      0.648720000000     0.044050000000     0.459800000000     0.406      
C        C      0.633940000000     0.083550000000     0.457250000000    -0.438      
H        H      0.634040000000     0.095700000000     0.482200000000     0.127      
H        H      0.601700000000     0.081300000000     0.444000000000     0.136      
C        C      0.664880000000     0.108700000000     0.438200000000     0.127      
H        H      0.662960000000     0.135000000000     0.447250000000    -0.028      
H        H      0.697500000000     0.103700000000     0.444950000000    -0.02       
C        C      0.680920000000     0.131050000000     0.377300000000     0.036      
H        H      0.713740000000     0.125900000000     0.381300000000    -0.002      
H        H      0.679660000000     0.156800000000     0.388400000000    -0          
C        C      0.663040000000     0.127900000000     0.336450000000    -0.261      
H        H      0.629760000000     0.131700000000     0.332200000000     0.071      
H        H      0.666280000000     0.102750000000     0.324900000000     0.075      
C        C      0.689780000000     0.156050000000     0.320500000000     0.086      
N        N      0.748580000000     0.341450000000     0.365350000000    -0.233      
H        H      0.780020000000     0.349450000000     0.378700000000     0.079      
H        H      0.751120000000     0.333200000000     0.340100000000     0.094      
N        N      0.623120000000     0.440450000000     0.374250000000    -0.245      
N        N      0.651920000000     0.103500000000     0.396150000000    -0.228      
H        H      0.656340000000     0.078050000000     0.387050000000     0.073      
H        H      0.618940000000     0.106500000000     0.389650000000     0.078      
N        N      0.710960000000     0.178850000000     0.308000000000    -0.253      
O        O      0.730180000000     0.276900000000     0.311050000000    -0.455      
O        O      0.653960000000     0.252900000000     0.299750000000    -0.486      
O        O      0.687400000000     0.036900000000     0.450500000000    -0.466      
O        O      0.621980000000     0.021050000000     0.473050000000    -0.47       
Ag       Ag     0.620496000000     0.275545000000     0.689825000000     0.481      
Ag       Ag     0.672970000000     0.213815000000     0.750165000000     0.46       
Ag       Ag     0.723582000000     0.017225000000     0.595280000000     0.47       
Ag       Ag     0.653442000000     0.474300000000     0.503000000000     0.489      
C        C      0.710580000000     0.228900000000     0.679000000000     0.414      
C        C      0.716740000000     0.212900000000     0.640900000000    -0.459      
H        H      0.741200000000     0.195900000000     0.643350000000     0.147      
H        H      0.727800000000     0.233600000000     0.628000000000     0.138      
C        C      0.672840000000     0.191650000000     0.617550000000     0.155      
H        H      0.680420000000     0.182200000000     0.593650000000    -0.039      
H        H      0.649320000000     0.209200000000     0.613150000000    -0.038      
C        C      0.679260000000     0.125100000000     0.633500000000     0.028      
H        H      0.712260000000     0.133500000000     0.643600000000    -0.003      
H        H      0.677480000000     0.114300000000     0.607900000000    -0.011      
C        C      0.660420000000     0.094250000000     0.656050000000    -0.242      
H        H      0.682220000000     0.075100000000     0.657950000000     0.058      
H        H      0.659360000000     0.105750000000     0.681000000000     0.068      
C        C      0.612060000000     0.075500000000     0.638850000000     0.083      
C        C      0.751280000000     0.455950000000     0.540200000000     0.406      
C        C      0.766060000000     0.416450000000     0.542750000000    -0.438      
H        H      0.765960000000     0.404300000000     0.517800000000     0.127      
H        H      0.798300000000     0.418700000000     0.556000000000     0.136      
C        C      0.735120000000     0.391300000000     0.561800000000     0.127      
H        H      0.737040000000     0.365000000000     0.552750000000    -0.028      
H        H      0.702500000000     0.396300000000     0.555050000000    -0.02       
C        C      0.719080000000     0.368950000000     0.622700000000     0.036      
H        H      0.686260000000     0.374100000000     0.618700000000    -0.002      
H        H      0.720340000000     0.343200000000     0.611600000000    -0          
C        C      0.736960000000     0.372100000000     0.663550000000    -0.261      
H        H      0.770240000000     0.368300000000     0.667800000000     0.071      
H        H      0.733720000000     0.397250000000     0.675100000000     0.075      
C        C      0.710220000000     0.343950000000     0.679500000000     0.086      
N        N      0.651420000000     0.158550000000     0.634650000000    -0.233      
H        H      0.619980000000     0.150550000000     0.621300000000     0.079      
H        H      0.648880000000     0.166800000000     0.659900000000     0.094      
N        N      0.776880000000     0.059550000000     0.625750000000    -0.245      
N        N      0.748080000000     0.396500000000     0.603850000000    -0.228      
H        H      0.743660000000     0.421950000000     0.612950000000     0.073      
H        H      0.781060000000     0.393500000000     0.610350000000     0.078      
N        N      0.689040000000     0.321150000000     0.692000000000    -0.253      
O        O      0.669820000000     0.223100000000     0.688950000000    -0.455      
O        O      0.746040000000     0.247100000000     0.700250000000    -0.486      
O        O      0.712600000000     0.463100000000     0.549500000000    -0.466      
O        O      0.778020000000     0.478950000000     0.526950000000    -0.47       
Ag       Ag     0.779504000000     0.224455000000     0.810175000000     0.48       
Ag       Ag     0.727030000000     0.286185000000     0.749835000000     0.459      
Ag       Ag     0.676418000000     0.482775000000     0.904720000000     0.469      
Ag       Ag     0.746558000000     0.025700000000     0.997000000000     0.488      
C        C      0.689420000000     0.271100000000     0.821000000000     0.414      
C        C      0.683260000000     0.287100000000     0.859100000000    -0.459      
H        H      0.658800000000     0.304100000000     0.856650000000     0.147      
H        H      0.672200000000     0.266400000000     0.872000000000     0.138      
C        C      0.727160000000     0.308350000000     0.882450000000     0.155      
H        H      0.719580000000     0.317800000000     0.906350000000    -0.039      
H        H      0.750680000000     0.290800000000     0.886850000000    -0.038      
C        C      0.720740000000     0.374900000000     0.866500000000     0.028      
H        H      0.687740000000     0.366500000000     0.856400000000    -0.003      
H        H      0.722520000000     0.385700000000     0.892100000000    -0.011      
C        C      0.739580000000     0.405750000000     0.843950000000    -0.242      
H        H      0.717780000000     0.424900000000     0.842050000000     0.058      
H        H      0.740640000000     0.394250000000     0.819000000000     0.068      
C        C      0.787940000000     0.424500000000     0.861150000000     0.083      
C        C      0.648720000000     0.044050000000     0.959800000000     0.406      
C        C      0.633940000000     0.083550000000     0.957250000000    -0.438      
H        H      0.634040000000     0.095700000000     0.982200000000     0.127      
H        H      0.601700000000     0.081300000000     0.944000000000     0.136      
C        C      0.664880000000     0.108700000000     0.938200000000     0.127      
H        H      0.662960000000     0.135000000000     0.947250000000    -0.028      
H        H      0.697500000000     0.103700000000     0.944950000000    -0.02       
C        C      0.680920000000     0.131050000000     0.877300000000     0.036      
H        H      0.713740000000     0.125900000000     0.881300000000    -0.002      
H        H      0.679660000000     0.156800000000     0.888400000000    -0          
C        C      0.663040000000     0.127900000000     0.836450000000    -0.261      
H        H      0.629760000000     0.131700000000     0.832200000000     0.071      
H        H      0.666280000000     0.102750000000     0.824900000000     0.075      
C        C      0.689780000000     0.156050000000     0.820500000000     0.086      
N        N      0.748580000000     0.341450000000     0.865350000000    -0.233      
H        H      0.780020000000     0.349450000000     0.878700000000     0.079      
H        H      0.751120000000     0.333200000000     0.840100000000     0.094      
N        N      0.623120000000     0.440450000000     0.874250000000    -0.245      
N        N      0.651920000000     0.103500000000     0.896150000000    -0.228      
H        H      0.656340000000     0.078050000000     0.887050000000     0.073      
H        H      0.618940000000     0.106500000000     0.889650000000     0.078      
N        N      0.710960000000     0.178850000000     0.808000000000    -0.253      
O        O      0.730180000000     0.276900000000     0.811050000000    -0.455      
O        O      0.653960000000     0.252900000000     0.799750000000    -0.486      
O        O      0.687400000000     0.036900000000     0.950500000000    -0.466      
O        O      0.621980000000     0.021050000000     0.973050000000    -0.47       
Ag       Ag     0.620496000000     0.775545000000     0.189825000000     0.481      
Ag       Ag     0.672970000000     0.713815000000     0.250165000000     0.46       
Ag       Ag     0.723582000000     0.517225000000     0.095280000000     0.47       
Ag       Ag     0.653442000000     0.974300000000     0.003000000000     0.489      
C        C      0.710580000000     0.728900000000     0.179000000000     0.414      
C        C      0.716740000000     0.712900000000     0.140900000000    -0.459      
H        H      0.741200000000     0.695900000000     0.143350000000     0.147      
H        H      0.727800000000     0.733600000000     0.128000000000     0.138      
C        C      0.672840000000     0.691650000000     0.117550000000     0.155      
H        H      0.680420000000     0.682200000000     0.093650000000    -0.039      
H        H      0.649320000000     0.709200000000     0.113150000000    -0.038      
C        C      0.679260000000     0.625100000000     0.133500000000     0.028      
H        H      0.712260000000     0.633500000000     0.143600000000    -0.003      
H        H      0.677480000000     0.614300000000     0.107900000000    -0.011      
C        C      0.660420000000     0.594250000000     0.156050000000    -0.242      
H        H      0.682220000000     0.575100000000     0.157950000000     0.058      
H        H      0.659360000000     0.605750000000     0.181000000000     0.068      
C        C      0.612060000000     0.575500000000     0.138850000000     0.083      
C        C      0.751280000000     0.955950000000     0.040200000000     0.406      
C        C      0.766060000000     0.916450000000     0.042750000000    -0.438      
H        H      0.765960000000     0.904300000000     0.017800000000     0.127      
H        H      0.798300000000     0.918700000000     0.056000000000     0.136      
C        C      0.735120000000     0.891300000000     0.061800000000     0.127      
H        H      0.737040000000     0.865000000000     0.052750000000    -0.028      
H        H      0.702500000000     0.896300000000     0.055050000000    -0.02       
C        C      0.719080000000     0.868950000000     0.122700000000     0.036      
H        H      0.686260000000     0.874100000000     0.118700000000    -0.002      
H        H      0.720340000000     0.843200000000     0.111600000000    -0          
C        C      0.736960000000     0.872100000000     0.163550000000    -0.261      
H        H      0.770240000000     0.868300000000     0.167800000000     0.071      
H        H      0.733720000000     0.897250000000     0.175100000000     0.075      
C        C      0.710220000000     0.843950000000     0.179500000000     0.086      
N        N      0.651420000000     0.658550000000     0.134650000000    -0.233      
H        H      0.619980000000     0.650550000000     0.121300000000     0.079      
H        H      0.648880000000     0.666800000000     0.159900000000     0.094      
N        N      0.776880000000     0.559550000000     0.125750000000    -0.245      
N        N      0.748080000000     0.896500000000     0.103850000000    -0.228      
H        H      0.743660000000     0.921950000000     0.112950000000     0.073      
H        H      0.781060000000     0.893500000000     0.110350000000     0.078      
N        N      0.689040000000     0.821150000000     0.192000000000    -0.253      
O        O      0.669820000000     0.723100000000     0.188950000000    -0.455      
O        O      0.746040000000     0.747100000000     0.200250000000    -0.486      
O        O      0.712600000000     0.963100000000     0.049500000000    -0.466      
O        O      0.778020000000     0.978950000000     0.026950000000    -0.47       
Ag       Ag     0.779504000000     0.724455000000     0.310175000000     0.48       
Ag       Ag     0.727030000000     0.786185000000     0.249835000000     0.459      
Ag       Ag     0.676418000000     0.982775000000     0.404720000000     0.469      
Ag       Ag     0.746558000000     0.525700000000     0.497000000000     0.488      
C        C      0.689420000000     0.771100000000     0.321000000000     0.414      
C        C      0.683260000000     0.787100000000     0.359100000000    -0.459      
H        H      0.658800000000     0.804100000000     0.356650000000     0.147      
H        H      0.672200000000     0.766400000000     0.372000000000     0.138      
C        C      0.727160000000     0.808350000000     0.382450000000     0.155      
H        H      0.719580000000     0.817800000000     0.406350000000    -0.039      
H        H      0.750680000000     0.790800000000     0.386850000000    -0.038      
C        C      0.720740000000     0.874900000000     0.366500000000     0.028      
H        H      0.687740000000     0.866500000000     0.356400000000    -0.003      
H        H      0.722520000000     0.885700000000     0.392100000000    -0.011      
C        C      0.739580000000     0.905750000000     0.343950000000    -0.242      
H        H      0.717780000000     0.924900000000     0.342050000000     0.058      
H        H      0.740640000000     0.894250000000     0.319000000000     0.068      
C        C      0.787940000000     0.924500000000     0.361150000000     0.083      
C        C      0.648720000000     0.544050000000     0.459800000000     0.406      
C        C      0.633940000000     0.583550000000     0.457250000000    -0.438      
H        H      0.634040000000     0.595700000000     0.482200000000     0.127      
H        H      0.601700000000     0.581300000000     0.444000000000     0.136      
C        C      0.664880000000     0.608700000000     0.438200000000     0.127      
H        H      0.662960000000     0.635000000000     0.447250000000    -0.028      
H        H      0.697500000000     0.603700000000     0.444950000000    -0.02       
C        C      0.680920000000     0.631050000000     0.377300000000     0.036      
H        H      0.713740000000     0.625900000000     0.381300000000    -0.002      
H        H      0.679660000000     0.656800000000     0.388400000000    -0          
C        C      0.663040000000     0.627900000000     0.336450000000    -0.261      
H        H      0.629760000000     0.631700000000     0.332200000000     0.071      
H        H      0.666280000000     0.602750000000     0.324900000000     0.075      
C        C      0.689780000000     0.656050000000     0.320500000000     0.086      
N        N      0.748580000000     0.841450000000     0.365350000000    -0.233      
H        H      0.780020000000     0.849450000000     0.378700000000     0.079      
H        H      0.751120000000     0.833200000000     0.340100000000     0.094      
N        N      0.623120000000     0.940450000000     0.374250000000    -0.245      
N        N      0.651920000000     0.603500000000     0.396150000000    -0.228      
H        H      0.656340000000     0.578050000000     0.387050000000     0.073      
H        H      0.618940000000     0.606500000000     0.389650000000     0.078      
N        N      0.710960000000     0.678850000000     0.308000000000    -0.253      
O        O      0.730180000000     0.776900000000     0.311050000000    -0.455      
O        O      0.653960000000     0.752900000000     0.299750000000    -0.486      
O        O      0.687400000000     0.536900000000     0.450500000000    -0.466      
O        O      0.621980000000     0.521050000000     0.473050000000    -0.47       
Ag       Ag     0.620496000000     0.775545000000     0.689825000000     0.481      
Ag       Ag     0.672970000000     0.713815000000     0.750165000000     0.46       
Ag       Ag     0.723582000000     0.517225000000     0.595280000000     0.47       
Ag       Ag     0.653442000000     0.974300000000     0.503000000000     0.489      
C        C      0.710580000000     0.728900000000     0.679000000000     0.414      
C        C      0.716740000000     0.712900000000     0.640900000000    -0.459      
H        H      0.741200000000     0.695900000000     0.643350000000     0.147      
H        H      0.727800000000     0.733600000000     0.628000000000     0.138      
C        C      0.672840000000     0.691650000000     0.617550000000     0.155      
H        H      0.680420000000     0.682200000000     0.593650000000    -0.039      
H        H      0.649320000000     0.709200000000     0.613150000000    -0.038      
C        C      0.679260000000     0.625100000000     0.633500000000     0.028      
H        H      0.712260000000     0.633500000000     0.643600000000    -0.003      
H        H      0.677480000000     0.614300000000     0.607900000000    -0.011      
C        C      0.660420000000     0.594250000000     0.656050000000    -0.242      
H        H      0.682220000000     0.575100000000     0.657950000000     0.058      
H        H      0.659360000000     0.605750000000     0.681000000000     0.068      
C        C      0.612060000000     0.575500000000     0.638850000000     0.083      
C        C      0.751280000000     0.955950000000     0.540200000000     0.406      
C        C      0.766060000000     0.916450000000     0.542750000000    -0.438      
H        H      0.765960000000     0.904300000000     0.517800000000     0.127      
H        H      0.798300000000     0.918700000000     0.556000000000     0.136      
C        C      0.735120000000     0.891300000000     0.561800000000     0.127      
H        H      0.737040000000     0.865000000000     0.552750000000    -0.028      
H        H      0.702500000000     0.896300000000     0.555050000000    -0.02       
C        C      0.719080000000     0.868950000000     0.622700000000     0.036      
H        H      0.686260000000     0.874100000000     0.618700000000    -0.002      
H        H      0.720340000000     0.843200000000     0.611600000000    -0          
C        C      0.736960000000     0.872100000000     0.663550000000    -0.261      
H        H      0.770240000000     0.868300000000     0.667800000000     0.071      
H        H      0.733720000000     0.897250000000     0.675100000000     0.075      
C        C      0.710220000000     0.843950000000     0.679500000000     0.086      
N        N      0.651420000000     0.658550000000     0.634650000000    -0.233      
H        H      0.619980000000     0.650550000000     0.621300000000     0.079      
H        H      0.648880000000     0.666800000000     0.659900000000     0.094      
N        N      0.776880000000     0.559550000000     0.625750000000    -0.245      
N        N      0.748080000000     0.896500000000     0.603850000000    -0.228      
H        H      0.743660000000     0.921950000000     0.612950000000     0.073      
H        H      0.781060000000     0.893500000000     0.610350000000     0.078      
N        N      0.689040000000     0.821150000000     0.692000000000    -0.253      
O        O      0.669820000000     0.723100000000     0.688950000000    -0.455      
O        O      0.746040000000     0.747100000000     0.700250000000    -0.486      
O        O      0.712600000000     0.963100000000     0.549500000000    -0.466      
O        O      0.778020000000     0.978950000000     0.526950000000    -0.47       
Ag       Ag     0.779504000000     0.724455000000     0.810175000000     0.48       
Ag       Ag     0.727030000000     0.786185000000     0.749835000000     0.459      
Ag       Ag     0.676418000000     0.982775000000     0.904720000000     0.469      
Ag       Ag     0.746558000000     0.525700000000     0.997000000000     0.488      
C        C      0.689420000000     0.771100000000     0.821000000000     0.414      
C        C      0.683260000000     0.787100000000     0.859100000000    -0.459      
H        H      0.658800000000     0.804100000000     0.856650000000     0.147      
H        H      0.672200000000     0.766400000000     0.872000000000     0.138      
C        C      0.727160000000     0.808350000000     0.882450000000     0.155      
H        H      0.719580000000     0.817800000000     0.906350000000    -0.039      
H        H      0.750680000000     0.790800000000     0.886850000000    -0.038      
C        C      0.720740000000     0.874900000000     0.866500000000     0.028      
H        H      0.687740000000     0.866500000000     0.856400000000    -0.003      
H        H      0.722520000000     0.885700000000     0.892100000000    -0.011      
C        C      0.739580000000     0.905750000000     0.843950000000    -0.242      
H        H      0.717780000000     0.924900000000     0.842050000000     0.058      
H        H      0.740640000000     0.894250000000     0.819000000000     0.068      
C        C      0.787940000000     0.924500000000     0.861150000000     0.083      
C        C      0.648720000000     0.544050000000     0.959800000000     0.406      
C        C      0.633940000000     0.583550000000     0.957250000000    -0.438      
H        H      0.634040000000     0.595700000000     0.982200000000     0.127      
H        H      0.601700000000     0.581300000000     0.944000000000     0.136      
C        C      0.664880000000     0.608700000000     0.938200000000     0.127      
H        H      0.662960000000     0.635000000000     0.947250000000    -0.028      
H        H      0.697500000000     0.603700000000     0.944950000000    -0.02       
C        C      0.680920000000     0.631050000000     0.877300000000     0.036      
H        H      0.713740000000     0.625900000000     0.881300000000    -0.002      
H        H      0.679660000000     0.656800000000     0.888400000000    -0          
C        C      0.663040000000     0.627900000000     0.836450000000    -0.261      
H        H      0.629760000000     0.631700000000     0.832200000000     0.071      
H        H      0.666280000000     0.602750000000     0.824900000000     0.075      
C        C      0.689780000000     0.656050000000     0.820500000000     0.086      
N        N      0.748580000000     0.841450000000     0.865350000000    -0.233      
H        H      0.780020000000     0.849450000000     0.878700000000     0.079      
H        H      0.751120000000     0.833200000000     0.840100000000     0.094      
N        N      0.623120000000     0.940450000000     0.874250000000    -0.245      
N        N      0.651920000000     0.603500000000     0.896150000000    -0.228      
H        H      0.656340000000     0.578050000000     0.887050000000     0.073      
H        H      0.618940000000     0.606500000000     0.889650000000     0.078      
N        N      0.710960000000     0.678850000000     0.808000000000    -0.253      
O        O      0.730180000000     0.776900000000     0.811050000000    -0.455      
O        O      0.653960000000     0.752900000000     0.799750000000    -0.486      
O        O      0.687400000000     0.536900000000     0.950500000000    -0.466      
O        O      0.621980000000     0.521050000000     0.973050000000    -0.47       
Ag       Ag     0.820496000000     0.275545000000     0.189825000000     0.481      
Ag       Ag     0.872970000000     0.213815000000     0.250165000000     0.46       
Ag       Ag     0.923582000000     0.017225000000     0.095280000000     0.47       
Ag       Ag     0.853442000000     0.474300000000     0.003000000000     0.489      
C        C      0.910580000000     0.228900000000     0.179000000000     0.414      
C        C      0.916740000000     0.212900000000     0.140900000000    -0.459      
H        H      0.941200000000     0.195900000000     0.143350000000     0.147      
H        H      0.927800000000     0.233600000000     0.128000000000     0.138      
C        C      0.872840000000     0.191650000000     0.117550000000     0.155      
H        H      0.880420000000     0.182200000000     0.093650000000    -0.039      
H        H      0.849320000000     0.209200000000     0.113150000000    -0.038      
C        C      0.879260000000     0.125100000000     0.133500000000     0.028      
H        H      0.912260000000     0.133500000000     0.143600000000    -0.003      
H        H      0.877480000000     0.114300000000     0.107900000000    -0.011      
C        C      0.860420000000     0.094250000000     0.156050000000    -0.242      
H        H      0.882220000000     0.075100000000     0.157950000000     0.058      
H        H      0.859360000000     0.105750000000     0.181000000000     0.068      
C        C      0.812060000000     0.075500000000     0.138850000000     0.083      
C        C      0.951280000000     0.455950000000     0.040200000000     0.406      
C        C      0.966060000000     0.416450000000     0.042750000000    -0.438      
H        H      0.965960000000     0.404300000000     0.017800000000     0.127      
H        H      0.998300000000     0.418700000000     0.056000000000     0.136      
C        C      0.935120000000     0.391300000000     0.061800000000     0.127      
H        H      0.937040000000     0.365000000000     0.052750000000    -0.028      
H        H      0.902500000000     0.396300000000     0.055050000000    -0.02       
C        C      0.919080000000     0.368950000000     0.122700000000     0.036      
H        H      0.886260000000     0.374100000000     0.118700000000    -0.002      
H        H      0.920340000000     0.343200000000     0.111600000000    -0          
C        C      0.936960000000     0.372100000000     0.163550000000    -0.261      
H        H      0.970240000000     0.368300000000     0.167800000000     0.071      
H        H      0.933720000000     0.397250000000     0.175100000000     0.075      
C        C      0.910220000000     0.343950000000     0.179500000000     0.086      
N        N      0.851420000000     0.158550000000     0.134650000000    -0.233      
H        H      0.819980000000     0.150550000000     0.121300000000     0.079      
H        H      0.848880000000     0.166800000000     0.159900000000     0.094      
N        N      0.976880000000     0.059550000000     0.125750000000    -0.245      
N        N      0.948080000000     0.396500000000     0.103850000000    -0.228      
H        H      0.943660000000     0.421950000000     0.112950000000     0.073      
H        H      0.981060000000     0.393500000000     0.110350000000     0.078      
N        N      0.889040000000     0.321150000000     0.192000000000    -0.253      
O        O      0.869820000000     0.223100000000     0.188950000000    -0.455      
O        O      0.946040000000     0.247100000000     0.200250000000    -0.486      
O        O      0.912600000000     0.463100000000     0.049500000000    -0.466      
O        O      0.978020000000     0.478950000000     0.026950000000    -0.47       
Ag       Ag     0.979504000000     0.224455000000     0.310175000000     0.48       
Ag       Ag     0.927030000000     0.286185000000     0.249835000000     0.459      
Ag       Ag     0.876418000000     0.482775000000     0.404720000000     0.469      
Ag       Ag     0.946558000000     0.025700000000     0.497000000000     0.488      
C        C      0.889420000000     0.271100000000     0.321000000000     0.414      
C        C      0.883260000000     0.287100000000     0.359100000000    -0.459      
H        H      0.858800000000     0.304100000000     0.356650000000     0.147      
H        H      0.872200000000     0.266400000000     0.372000000000     0.138      
C        C      0.927160000000     0.308350000000     0.382450000000     0.155      
H        H      0.919580000000     0.317800000000     0.406350000000    -0.039      
H        H      0.950680000000     0.290800000000     0.386850000000    -0.038      
C        C      0.920740000000     0.374900000000     0.366500000000     0.028      
H        H      0.887740000000     0.366500000000     0.356400000000    -0.003      
H        H      0.922520000000     0.385700000000     0.392100000000    -0.011      
C        C      0.939580000000     0.405750000000     0.343950000000    -0.242      
H        H      0.917780000000     0.424900000000     0.342050000000     0.058      
H        H      0.940640000000     0.394250000000     0.319000000000     0.068      
C        C      0.987940000000     0.424500000000     0.361150000000     0.083      
C        C      0.848720000000     0.044050000000     0.459800000000     0.406      
C        C      0.833940000000     0.083550000000     0.457250000000    -0.438      
H        H      0.834040000000     0.095700000000     0.482200000000     0.127      
H        H      0.801700000000     0.081300000000     0.444000000000     0.136      
C        C      0.864880000000     0.108700000000     0.438200000000     0.127      
H        H      0.862960000000     0.135000000000     0.447250000000    -0.028      
H        H      0.897500000000     0.103700000000     0.444950000000    -0.02       
C        C      0.880920000000     0.131050000000     0.377300000000     0.036      
H        H      0.913740000000     0.125900000000     0.381300000000    -0.002      
H        H      0.879660000000     0.156800000000     0.388400000000    -0          
C        C      0.863040000000     0.127900000000     0.336450000000    -0.261      
H        H      0.829760000000     0.131700000000     0.332200000000     0.071      
H        H      0.866280000000     0.102750000000     0.324900000000     0.075      
C        C      0.889780000000     0.156050000000     0.320500000000     0.086      
N        N      0.948580000000     0.341450000000     0.365350000000    -0.233      
H        H      0.980020000000     0.349450000000     0.378700000000     0.079      
H        H      0.951120000000     0.333200000000     0.340100000000     0.094      
N        N      0.823120000000     0.440450000000     0.374250000000    -0.245      
N        N      0.851920000000     0.103500000000     0.396150000000    -0.228      
H        H      0.856340000000     0.078050000000     0.387050000000     0.073      
H        H      0.818940000000     0.106500000000     0.389650000000     0.078      
N        N      0.910960000000     0.178850000000     0.308000000000    -0.253      
O        O      0.930180000000     0.276900000000     0.311050000000    -0.455      
O        O      0.853960000000     0.252900000000     0.299750000000    -0.486      
O        O      0.887400000000     0.036900000000     0.450500000000    -0.466      
O        O      0.821980000000     0.021050000000     0.473050000000    -0.47       
Ag       Ag     0.820496000000     0.275545000000     0.689825000000     0.481      
Ag       Ag     0.872970000000     0.213815000000     0.750165000000     0.46       
Ag       Ag     0.923582000000     0.017225000000     0.595280000000     0.47       
Ag       Ag     0.853442000000     0.474300000000     0.503000000000     0.489      
C        C      0.910580000000     0.228900000000     0.679000000000     0.414      
C        C      0.916740000000     0.212900000000     0.640900000000    -0.459      
H        H      0.941200000000     0.195900000000     0.643350000000     0.147      
H        H      0.927800000000     0.233600000000     0.628000000000     0.138      
C        C      0.872840000000     0.191650000000     0.617550000000     0.155      
H        H      0.880420000000     0.182200000000     0.593650000000    -0.039      
H        H      0.849320000000     0.209200000000     0.613150000000    -0.038      
C        C      0.879260000000     0.125100000000     0.633500000000     0.028      
H        H      0.912260000000     0.133500000000     0.643600000000    -0.003      
H        H      0.877480000000     0.114300000000     0.607900000000    -0.011      
C        C      0.860420000000     0.094250000000     0.656050000000    -0.242      
H        H      0.882220000000     0.075100000000     0.657950000000     0.058      
H        H      0.859360000000     0.105750000000     0.681000000000     0.068      
C        C      0.812060000000     0.075500000000     0.638850000000     0.083      
C        C      0.951280000000     0.455950000000     0.540200000000     0.406      
C        C      0.966060000000     0.416450000000     0.542750000000    -0.438      
H        H      0.965960000000     0.404300000000     0.517800000000     0.127      
H        H      0.998300000000     0.418700000000     0.556000000000     0.136      
C        C      0.935120000000     0.391300000000     0.561800000000     0.127      
H        H      0.937040000000     0.365000000000     0.552750000000    -0.028      
H        H      0.902500000000     0.396300000000     0.555050000000    -0.02       
C        C      0.919080000000     0.368950000000     0.622700000000     0.036      
H        H      0.886260000000     0.374100000000     0.618700000000    -0.002      
H        H      0.920340000000     0.343200000000     0.611600000000    -0          
C        C      0.936960000000     0.372100000000     0.663550000000    -0.261      
H        H      0.970240000000     0.368300000000     0.667800000000     0.071      
H        H      0.933720000000     0.397250000000     0.675100000000     0.075      
C        C      0.910220000000     0.343950000000     0.679500000000     0.086      
N        N      0.851420000000     0.158550000000     0.634650000000    -0.233      
H        H      0.819980000000     0.150550000000     0.621300000000     0.079      
H        H      0.848880000000     0.166800000000     0.659900000000     0.094      
N        N      0.976880000000     0.059550000000     0.625750000000    -0.245      
N        N      0.948080000000     0.396500000000     0.603850000000    -0.228      
H        H      0.943660000000     0.421950000000     0.612950000000     0.073      
H        H      0.981060000000     0.393500000000     0.610350000000     0.078      
N        N      0.889040000000     0.321150000000     0.692000000000    -0.253      
O        O      0.869820000000     0.223100000000     0.688950000000    -0.455      
O        O      0.946040000000     0.247100000000     0.700250000000    -0.486      
O        O      0.912600000000     0.463100000000     0.549500000000    -0.466      
O        O      0.978020000000     0.478950000000     0.526950000000    -0.47       
Ag       Ag     0.979504000000     0.224455000000     0.810175000000     0.48       
Ag       Ag     0.927030000000     0.286185000000     0.749835000000     0.459      
Ag       Ag     0.876418000000     0.482775000000     0.904720000000     0.469      
Ag       Ag     0.946558000000     0.025700000000     0.997000000000     0.488      
C        C      0.889420000000     0.271100000000     0.821000000000     0.414      
C        C      0.883260000000     0.287100000000     0.859100000000    -0.459      
H        H      0.858800000000     0.304100000000     0.856650000000     0.147      
H        H      0.872200000000     0.266400000000     0.872000000000     0.138      
C        C      0.927160000000     0.308350000000     0.882450000000     0.155      
H        H      0.919580000000     0.317800000000     0.906350000000    -0.039      
H        H      0.950680000000     0.290800000000     0.886850000000    -0.038      
C        C      0.920740000000     0.374900000000     0.866500000000     0.028      
H        H      0.887740000000     0.366500000000     0.856400000000    -0.003      
H        H      0.922520000000     0.385700000000     0.892100000000    -0.011      
C        C      0.939580000000     0.405750000000     0.843950000000    -0.242      
H        H      0.917780000000     0.424900000000     0.842050000000     0.058      
H        H      0.940640000000     0.394250000000     0.819000000000     0.068      
C        C      0.987940000000     0.424500000000     0.861150000000     0.083      
C        C      0.848720000000     0.044050000000     0.959800000000     0.406      
C        C      0.833940000000     0.083550000000     0.957250000000    -0.438      
H        H      0.834040000000     0.095700000000     0.982200000000     0.127      
H        H      0.801700000000     0.081300000000     0.944000000000     0.136      
C        C      0.864880000000     0.108700000000     0.938200000000     0.127      
H        H      0.862960000000     0.135000000000     0.947250000000    -0.028      
H        H      0.897500000000     0.103700000000     0.944950000000    -0.02       
C        C      0.880920000000     0.131050000000     0.877300000000     0.036      
H        H      0.913740000000     0.125900000000     0.881300000000    -0.002      
H        H      0.879660000000     0.156800000000     0.888400000000    -0          
C        C      0.863040000000     0.127900000000     0.836450000000    -0.261      
H        H      0.829760000000     0.131700000000     0.832200000000     0.071      
H        H      0.866280000000     0.102750000000     0.824900000000     0.075      
C        C      0.889780000000     0.156050000000     0.820500000000     0.086      
N        N      0.948580000000     0.341450000000     0.865350000000    -0.233      
H        H      0.980020000000     0.349450000000     0.878700000000     0.079      
H        H      0.951120000000     0.333200000000     0.840100000000     0.094      
N        N      0.823120000000     0.440450000000     0.874250000000    -0.245      
N        N      0.851920000000     0.103500000000     0.896150000000    -0.228      
H        H      0.856340000000     0.078050000000     0.887050000000     0.073      
H        H      0.818940000000     0.106500000000     0.889650000000     0.078      
N        N      0.910960000000     0.178850000000     0.808000000000    -0.253      
O        O      0.930180000000     0.276900000000     0.811050000000    -0.455      
O        O      0.853960000000     0.252900000000     0.799750000000    -0.486      
O        O      0.887400000000     0.036900000000     0.950500000000    -0.466      
O        O      0.821980000000     0.021050000000     0.973050000000    -0.47       
Ag       Ag     0.820496000000     0.775545000000     0.189825000000     0.481      
Ag       Ag     0.872970000000     0.713815000000     0.250165000000     0.46       
Ag       Ag     0.923582000000     0.517225000000     0.095280000000     0.47       
Ag       Ag     0.853442000000     0.974300000000     0.003000000000     0.489      
C        C      0.910580000000     0.728900000000     0.179000000000     0.414      
C        C      0.916740000000     0.712900000000     0.140900000000    -0.459      
H        H      0.941200000000     0.695900000000     0.143350000000     0.147      
H        H      0.927800000000     0.733600000000     0.128000000000     0.138      
C        C      0.872840000000     0.691650000000     0.117550000000     0.155      
H        H      0.880420000000     0.682200000000     0.093650000000    -0.039      
H        H      0.849320000000     0.709200000000     0.113150000000    -0.038      
C        C      0.879260000000     0.625100000000     0.133500000000     0.028      
H        H      0.912260000000     0.633500000000     0.143600000000    -0.003      
H        H      0.877480000000     0.614300000000     0.107900000000    -0.011      
C        C      0.860420000000     0.594250000000     0.156050000000    -0.242      
H        H      0.882220000000     0.575100000000     0.157950000000     0.058      
H        H      0.859360000000     0.605750000000     0.181000000000     0.068      
C        C      0.812060000000     0.575500000000     0.138850000000     0.083      
C        C      0.951280000000     0.955950000000     0.040200000000     0.406      
C        C      0.966060000000     0.916450000000     0.042750000000    -0.438      
H        H      0.965960000000     0.904300000000     0.017800000000     0.127      
H        H      0.998300000000     0.918700000000     0.056000000000     0.136      
C        C      0.935120000000     0.891300000000     0.061800000000     0.127      
H        H      0.937040000000     0.865000000000     0.052750000000    -0.028      
H        H      0.902500000000     0.896300000000     0.055050000000    -0.02       
C        C      0.919080000000     0.868950000000     0.122700000000     0.036      
H        H      0.886260000000     0.874100000000     0.118700000000    -0.002      
H        H      0.920340000000     0.843200000000     0.111600000000    -0          
C        C      0.936960000000     0.872100000000     0.163550000000    -0.261      
H        H      0.970240000000     0.868300000000     0.167800000000     0.071      
H        H      0.933720000000     0.897250000000     0.175100000000     0.075      
C        C      0.910220000000     0.843950000000     0.179500000000     0.086      
N        N      0.851420000000     0.658550000000     0.134650000000    -0.233      
H        H      0.819980000000     0.650550000000     0.121300000000     0.079      
H        H      0.848880000000     0.666800000000     0.159900000000     0.094      
N        N      0.976880000000     0.559550000000     0.125750000000    -0.245      
N        N      0.948080000000     0.896500000000     0.103850000000    -0.228      
H        H      0.943660000000     0.921950000000     0.112950000000     0.073      
H        H      0.981060000000     0.893500000000     0.110350000000     0.078      
N        N      0.889040000000     0.821150000000     0.192000000000    -0.253      
O        O      0.869820000000     0.723100000000     0.188950000000    -0.455      
O        O      0.946040000000     0.747100000000     0.200250000000    -0.486      
O        O      0.912600000000     0.963100000000     0.049500000000    -0.466      
O        O      0.978020000000     0.978950000000     0.026950000000    -0.47       
Ag       Ag     0.979504000000     0.724455000000     0.310175000000     0.48       
Ag       Ag     0.927030000000     0.786185000000     0.249835000000     0.459      
Ag       Ag     0.876418000000     0.982775000000     0.404720000000     0.469      
Ag       Ag     0.946558000000     0.525700000000     0.497000000000     0.488      
C        C      0.889420000000     0.771100000000     0.321000000000     0.414      
C        C      0.883260000000     0.787100000000     0.359100000000    -0.459      
H        H      0.858800000000     0.804100000000     0.356650000000     0.147      
H        H      0.872200000000     0.766400000000     0.372000000000     0.138      
C        C      0.927160000000     0.808350000000     0.382450000000     0.155      
H        H      0.919580000000     0.817800000000     0.406350000000    -0.039      
H        H      0.950680000000     0.790800000000     0.386850000000    -0.038      
C        C      0.920740000000     0.874900000000     0.366500000000     0.028      
H        H      0.887740000000     0.866500000000     0.356400000000    -0.003      
H        H      0.922520000000     0.885700000000     0.392100000000    -0.011      
C        C      0.939580000000     0.905750000000     0.343950000000    -0.242      
H        H      0.917780000000     0.924900000000     0.342050000000     0.058      
H        H      0.940640000000     0.894250000000     0.319000000000     0.068      
C        C      0.987940000000     0.924500000000     0.361150000000     0.083      
C        C      0.848720000000     0.544050000000     0.459800000000     0.406      
C        C      0.833940000000     0.583550000000     0.457250000000    -0.438      
H        H      0.834040000000     0.595700000000     0.482200000000     0.127      
H        H      0.801700000000     0.581300000000     0.444000000000     0.136      
C        C      0.864880000000     0.608700000000     0.438200000000     0.127      
H        H      0.862960000000     0.635000000000     0.447250000000    -0.028      
H        H      0.897500000000     0.603700000000     0.444950000000    -0.02       
C        C      0.880920000000     0.631050000000     0.377300000000     0.036      
H        H      0.913740000000     0.625900000000     0.381300000000    -0.002      
H        H      0.879660000000     0.656800000000     0.388400000000    -0          
C        C      0.863040000000     0.627900000000     0.336450000000    -0.261      
H        H      0.829760000000     0.631700000000     0.332200000000     0.071      
H        H      0.866280000000     0.602750000000     0.324900000000     0.075      
C        C      0.889780000000     0.656050000000     0.320500000000     0.086      
N        N      0.948580000000     0.841450000000     0.365350000000    -0.233      
H        H      0.980020000000     0.849450000000     0.378700000000     0.079      
H        H      0.951120000000     0.833200000000     0.340100000000     0.094      
N        N      0.823120000000     0.940450000000     0.374250000000    -0.245      
N        N      0.851920000000     0.603500000000     0.396150000000    -0.228      
H        H      0.856340000000     0.578050000000     0.387050000000     0.073      
H        H      0.818940000000     0.606500000000     0.389650000000     0.078      
N        N      0.910960000000     0.678850000000     0.308000000000    -0.253      
O        O      0.930180000000     0.776900000000     0.311050000000    -0.455      
O        O      0.853960000000     0.752900000000     0.299750000000    -0.486      
O        O      0.887400000000     0.536900000000     0.450500000000    -0.466      
O        O      0.821980000000     0.521050000000     0.473050000000    -0.47       
Ag       Ag     0.820496000000     0.775545000000     0.689825000000     0.481      
Ag       Ag     0.872970000000     0.713815000000     0.750165000000     0.46       
Ag       Ag     0.923582000000     0.517225000000     0.595280000000     0.47       
Ag       Ag     0.853442000000     0.974300000000     0.503000000000     0.489      
C        C      0.910580000000     0.728900000000     0.679000000000     0.414      
C        C      0.916740000000     0.712900000000     0.640900000000    -0.459      
H        H      0.941200000000     0.695900000000     0.643350000000     0.147      
H        H      0.927800000000     0.733600000000     0.628000000000     0.138      
C        C      0.872840000000     0.691650000000     0.617550000000     0.155      
H        H      0.880420000000     0.682200000000     0.593650000000    -0.039      
H        H      0.849320000000     0.709200000000     0.613150000000    -0.038      
C        C      0.879260000000     0.625100000000     0.633500000000     0.028      
H        H      0.912260000000     0.633500000000     0.643600000000    -0.003      
H        H      0.877480000000     0.614300000000     0.607900000000    -0.011      
C        C      0.860420000000     0.594250000000     0.656050000000    -0.242      
H        H      0.882220000000     0.575100000000     0.657950000000     0.058      
H        H      0.859360000000     0.605750000000     0.681000000000     0.068      
C        C      0.812060000000     0.575500000000     0.638850000000     0.083      
C        C      0.951280000000     0.955950000000     0.540200000000     0.406      
C        C      0.966060000000     0.916450000000     0.542750000000    -0.438      
H        H      0.965960000000     0.904300000000     0.517800000000     0.127      
H        H      0.998300000000     0.918700000000     0.556000000000     0.136      
C        C      0.935120000000     0.891300000000     0.561800000000     0.127      
H        H      0.937040000000     0.865000000000     0.552750000000    -0.028      
H        H      0.902500000000     0.896300000000     0.555050000000    -0.02       
C        C      0.919080000000     0.868950000000     0.622700000000     0.036      
H        H      0.886260000000     0.874100000000     0.618700000000    -0.002      
H        H      0.920340000000     0.843200000000     0.611600000000    -0          
C        C      0.936960000000     0.872100000000     0.663550000000    -0.261      
H        H      0.970240000000     0.868300000000     0.667800000000     0.071      
H        H      0.933720000000     0.897250000000     0.675100000000     0.075      
C        C      0.910220000000     0.843950000000     0.679500000000     0.086      
N        N      0.851420000000     0.658550000000     0.634650000000    -0.233      
H        H      0.819980000000     0.650550000000     0.621300000000     0.079      
H        H      0.848880000000     0.666800000000     0.659900000000     0.094      
N        N      0.976880000000     0.559550000000     0.625750000000    -0.245      
N        N      0.948080000000     0.896500000000     0.603850000000    -0.228      
H        H      0.943660000000     0.921950000000     0.612950000000     0.073      
H        H      0.981060000000     0.893500000000     0.610350000000     0.078      
N        N      0.889040000000     0.821150000000     0.692000000000    -0.253      
O        O      0.869820000000     0.723100000000     0.688950000000    -0.455      
O        O      0.946040000000     0.747100000000     0.700250000000    -0.486      
O        O      0.912600000000     0.963100000000     0.549500000000    -0.466      
O        O      0.978020000000     0.978950000000     0.526950000000    -0.47       
Ag       Ag     0.979504000000     0.724455000000     0.810175000000     0.48       
Ag       Ag     0.927030000000     0.786185000000     0.749835000000     0.459      
Ag       Ag     0.876418000000     0.982775000000     0.904720000000     0.469      
Ag       Ag     0.946558000000     0.525700000000     0.997000000000     0.488      
C        C      0.889420000000     0.771100000000     0.821000000000     0.414      
C        C      0.883260000000     0.787100000000     0.859100000000    -0.459      
H        H      0.858800000000     0.804100000000     0.856650000000     0.147      
H        H      0.872200000000     0.766400000000     0.872000000000     0.138      
C        C      0.927160000000     0.808350000000     0.882450000000     0.155      
H        H      0.919580000000     0.817800000000     0.906350000000    -0.039      
H        H      0.950680000000     0.790800000000     0.886850000000    -0.038      
C        C      0.920740000000     0.874900000000     0.866500000000     0.028      
H        H      0.887740000000     0.866500000000     0.856400000000    -0.003      
H        H      0.922520000000     0.885700000000     0.892100000000    -0.011      
C        C      0.939580000000     0.905750000000     0.843950000000    -0.242      
H        H      0.917780000000     0.924900000000     0.842050000000     0.058      
H        H      0.940640000000     0.894250000000     0.819000000000     0.068      
C        C      0.987940000000     0.924500000000     0.861150000000     0.083      
C        C      0.848720000000     0.544050000000     0.959800000000     0.406      
C        C      0.833940000000     0.583550000000     0.957250000000    -0.438      
H        H      0.834040000000     0.595700000000     0.982200000000     0.127      
H        H      0.801700000000     0.581300000000     0.944000000000     0.136      
C        C      0.864880000000     0.608700000000     0.938200000000     0.127      
H        H      0.862960000000     0.635000000000     0.947250000000    -0.028      
H        H      0.897500000000     0.603700000000     0.944950000000    -0.02       
C        C      0.880920000000     0.631050000000     0.877300000000     0.036      
H        H      0.913740000000     0.625900000000     0.881300000000    -0.002      
H        H      0.879660000000     0.656800000000     0.888400000000    -0          
C        C      0.863040000000     0.627900000000     0.836450000000    -0.261      
H        H      0.829760000000     0.631700000000     0.832200000000     0.071      
H        H      0.866280000000     0.602750000000     0.824900000000     0.075      
C        C      0.889780000000     0.656050000000     0.820500000000     0.086      
N        N      0.948580000000     0.841450000000     0.865350000000    -0.233      
H        H      0.980020000000     0.849450000000     0.878700000000     0.079      
H        H      0.951120000000     0.833200000000     0.840100000000     0.094      
N        N      0.823120000000     0.940450000000     0.874250000000    -0.245      
N        N      0.851920000000     0.603500000000     0.896150000000    -0.228      
H        H      0.856340000000     0.578050000000     0.887050000000     0.073      
H        H      0.818940000000     0.606500000000     0.889650000000     0.078      
N        N      0.910960000000     0.678850000000     0.808000000000    -0.253      
O        O      0.930180000000     0.776900000000     0.811050000000    -0.455      
O        O      0.853960000000     0.752900000000     0.799750000000    -0.486      
O        O      0.887400000000     0.536900000000     0.950500000000    -0.466      
O        O      0.821980000000     0.521050000000     0.973050000000    -0.47       


