data_ABAYOU_clean

_audit_creation_method RASPA-1.0
_audit_creation_date 2022-6-18
_audit_author_name 'Xiaoqi Zhang'

_cell_length_a    26.647
_cell_length_b    26.647
_cell_length_c    26.647
_cell_angle_alpha 90
_cell_angle_beta  90
_cell_angle_gamma 90
_cell_volume      18921

_symmetry_cell_setting          triclinic
_symmetry_space_group_name_Hall 'P 1'
_symmetry_space_group_name_H-M  'P 1'
_symmetry_Int_Tables_number     1

_symmetry_equiv_pos_as_xyz 'x,y,z'

loop_
_atom_site_label
_atom_site_type_symbol
_atom_site_fract_x
_atom_site_fract_y
_atom_site_fract_z
_atom_site_charge
O        O      0.242600000000     0.317000000000     0.053100000000    -0.416      
O        O      0.242600000000     0.817000000000     0.553100000000    -0.402      
O        O      0.742600000000     0.317000000000     0.553100000000    -0.404      
O        O      0.742600000000     0.817000000000     0.053100000000    -0.41       
O        O      0.757400000000     0.683000000000     0.053100000000    -0.414      
O        O      0.757400000000     0.183000000000     0.553100000000    -0.406      
O        O      0.257400000000     0.683000000000     0.553100000000    -0.405      
O        O      0.257400000000     0.183000000000     0.053100000000    -0.418      
O        O      0.757400000000     0.317000000000     0.946900000000    -0.374      
O        O      0.757400000000     0.817000000000     0.446900000000    -0.4        
O        O      0.257400000000     0.317000000000     0.446900000000    -0.405      
O        O      0.257400000000     0.817000000000     0.946900000000    -0.372      
O        O      0.242600000000     0.683000000000     0.946900000000    -0.376      
O        O      0.242600000000     0.183000000000     0.446900000000    -0.408      
O        O      0.742600000000     0.683000000000     0.446900000000    -0.404      
O        O      0.742600000000     0.183000000000     0.946900000000    -0.377      
O        O      0.053100000000     0.242600000000     0.317000000000    -0.416      
O        O      0.053100000000     0.742600000000     0.817000000000    -0.41       
O        O      0.553100000000     0.242600000000     0.817000000000    -0.402      
O        O      0.553100000000     0.742600000000     0.317000000000    -0.404      
O        O      0.053100000000     0.757400000000     0.683000000000    -0.414      
O        O      0.053100000000     0.257400000000     0.183000000000    -0.418      
O        O      0.553100000000     0.757400000000     0.183000000000    -0.406      
O        O      0.553100000000     0.257400000000     0.683000000000    -0.405      
O        O      0.946900000000     0.757400000000     0.317000000000    -0.374      
O        O      0.946900000000     0.257400000000     0.817000000000    -0.372      
O        O      0.446900000000     0.757400000000     0.817000000000    -0.4        
O        O      0.446900000000     0.257400000000     0.317000000000    -0.405      
O        O      0.946900000000     0.242600000000     0.683000000000    -0.376      
O        O      0.946900000000     0.742600000000     0.183000000000    -0.377      
O        O      0.446900000000     0.242600000000     0.183000000000    -0.408      
O        O      0.446900000000     0.742600000000     0.683000000000    -0.404      
O        O      0.317000000000     0.053100000000     0.242600000000    -0.416      
O        O      0.317000000000     0.553100000000     0.742600000000    -0.404      
O        O      0.817000000000     0.053100000000     0.742600000000    -0.41       
O        O      0.817000000000     0.553100000000     0.242600000000    -0.402      
O        O      0.683000000000     0.053100000000     0.757400000000    -0.414      
O        O      0.683000000000     0.553100000000     0.257400000000    -0.405      
O        O      0.183000000000     0.053100000000     0.257400000000    -0.418      
O        O      0.183000000000     0.553100000000     0.757400000000    -0.405      
O        O      0.317000000000     0.946900000000     0.757400000000    -0.373      
O        O      0.317000000000     0.446900000000     0.257400000000    -0.404      
O        O      0.817000000000     0.946900000000     0.257400000000    -0.371      
O        O      0.817000000000     0.446900000000     0.757400000000    -0.399      
O        O      0.683000000000     0.946900000000     0.242600000000    -0.375      
O        O      0.683000000000     0.446900000000     0.742600000000    -0.403      
O        O      0.183000000000     0.946900000000     0.742600000000    -0.376      
O        O      0.183000000000     0.446900000000     0.242600000000    -0.407      
O        O      0.317000000000     0.242600000000     0.946900000000    -0.375      
O        O      0.317000000000     0.742600000000     0.446900000000    -0.403      
O        O      0.817000000000     0.242600000000     0.446900000000    -0.401      
O        O      0.817000000000     0.742600000000     0.946900000000    -0.37       
O        O      0.683000000000     0.757400000000     0.946900000000    -0.373      
O        O      0.683000000000     0.257400000000     0.446900000000    -0.404      
O        O      0.183000000000     0.757400000000     0.446900000000    -0.405      
O        O      0.183000000000     0.257400000000     0.946900000000    -0.377      
O        O      0.317000000000     0.757400000000     0.053100000000    -0.413      
O        O      0.317000000000     0.257400000000     0.553100000000    -0.404      
O        O      0.817000000000     0.757400000000     0.553100000000    -0.399      
O        O      0.817000000000     0.257400000000     0.053100000000    -0.41       
O        O      0.683000000000     0.242600000000     0.053100000000    -0.415      
O        O      0.683000000000     0.742600000000     0.553100000000    -0.403      
O        O      0.183000000000     0.242600000000     0.553100000000    -0.407      
O        O      0.183000000000     0.742600000000     0.053100000000    -0.416      
O        O      0.242600000000     0.053100000000     0.683000000000    -0.415      
O        O      0.242600000000     0.553100000000     0.183000000000    -0.407      
O        O      0.742600000000     0.053100000000     0.183000000000    -0.416      
O        O      0.742600000000     0.553100000000     0.683000000000    -0.403      
O        O      0.757400000000     0.053100000000     0.317000000000    -0.413      
O        O      0.757400000000     0.553100000000     0.817000000000    -0.399      
O        O      0.257400000000     0.053100000000     0.817000000000    -0.41       
O        O      0.257400000000     0.553100000000     0.317000000000    -0.404      
O        O      0.757400000000     0.946900000000     0.683000000000    -0.373      
O        O      0.757400000000     0.446900000000     0.183000000000    -0.405      
O        O      0.257400000000     0.946900000000     0.183000000000    -0.377      
O        O      0.257400000000     0.446900000000     0.683000000000    -0.404      
O        O      0.242600000000     0.946900000000     0.317000000000    -0.375      
O        O      0.242600000000     0.446900000000     0.817000000000    -0.401      
O        O      0.742600000000     0.946900000000     0.817000000000    -0.37       
O        O      0.742600000000     0.446900000000     0.317000000000    -0.403      
O        O      0.053100000000     0.317000000000     0.757400000000    -0.413      
O        O      0.053100000000     0.817000000000     0.257400000000    -0.41       
O        O      0.553100000000     0.317000000000     0.257400000000    -0.404      
O        O      0.553100000000     0.817000000000     0.757400000000    -0.399      
O        O      0.053100000000     0.683000000000     0.242600000000    -0.415      
O        O      0.053100000000     0.183000000000     0.742600000000    -0.416      
O        O      0.553100000000     0.683000000000     0.742600000000    -0.403      
O        O      0.553100000000     0.183000000000     0.242600000000    -0.407      
O        O      0.946900000000     0.317000000000     0.242600000000    -0.375      
O        O      0.946900000000     0.817000000000     0.742600000000    -0.37       
O        O      0.446900000000     0.317000000000     0.742600000000    -0.403      
O        O      0.446900000000     0.817000000000     0.242600000000    -0.401      
O        O      0.946900000000     0.683000000000     0.757400000000    -0.373      
O        O      0.946900000000     0.183000000000     0.257400000000    -0.377      
O        O      0.446900000000     0.683000000000     0.257400000000    -0.404      
O        O      0.446900000000     0.183000000000     0.757400000000    -0.405      
O        O      0.757400000000     0.683000000000     0.946900000000    -0.373      
O        O      0.757400000000     0.183000000000     0.446900000000    -0.405      
O        O      0.257400000000     0.683000000000     0.446900000000    -0.404      
O        O      0.257400000000     0.183000000000     0.946900000000    -0.377      
O        O      0.242600000000     0.317000000000     0.946900000000    -0.375      
O        O      0.242600000000     0.817000000000     0.446900000000    -0.401      
O        O      0.742600000000     0.317000000000     0.446900000000    -0.403      
O        O      0.742600000000     0.817000000000     0.946900000000    -0.37       
O        O      0.242600000000     0.683000000000     0.053100000000    -0.415      
O        O      0.242600000000     0.183000000000     0.553100000000    -0.407      
O        O      0.742600000000     0.683000000000     0.553100000000    -0.403      
O        O      0.742600000000     0.183000000000     0.053100000000    -0.416      
O        O      0.757400000000     0.317000000000     0.053100000000    -0.413      
O        O      0.757400000000     0.817000000000     0.553100000000    -0.399      
O        O      0.257400000000     0.317000000000     0.553100000000    -0.404      
O        O      0.257400000000     0.817000000000     0.053100000000    -0.41       
O        O      0.946900000000     0.757400000000     0.683000000000    -0.373      
O        O      0.946900000000     0.257400000000     0.183000000000    -0.377      
O        O      0.446900000000     0.757400000000     0.183000000000    -0.405      
O        O      0.446900000000     0.257400000000     0.683000000000    -0.404      
O        O      0.946900000000     0.242600000000     0.317000000000    -0.375      
O        O      0.946900000000     0.742600000000     0.817000000000    -0.37       
O        O      0.446900000000     0.242600000000     0.817000000000    -0.401      
O        O      0.446900000000     0.742600000000     0.317000000000    -0.403      
O        O      0.053100000000     0.242600000000     0.683000000000    -0.415      
O        O      0.053100000000     0.742600000000     0.183000000000    -0.416      
O        O      0.553100000000     0.242600000000     0.183000000000    -0.407      
O        O      0.553100000000     0.742600000000     0.683000000000    -0.403      
O        O      0.053100000000     0.757400000000     0.317000000000    -0.413      
O        O      0.053100000000     0.257400000000     0.817000000000    -0.41       
O        O      0.553100000000     0.757400000000     0.817000000000    -0.399      
O        O      0.553100000000     0.257400000000     0.317000000000    -0.404      
O        O      0.683000000000     0.946900000000     0.757400000000    -0.373      
O        O      0.683000000000     0.446900000000     0.257400000000    -0.404      
O        O      0.183000000000     0.946900000000     0.257400000000    -0.377      
O        O      0.183000000000     0.446900000000     0.757400000000    -0.405      
O        O      0.317000000000     0.946900000000     0.242600000000    -0.375      
O        O      0.317000000000     0.446900000000     0.742600000000    -0.403      
O        O      0.817000000000     0.946900000000     0.742600000000    -0.37       
O        O      0.817000000000     0.446900000000     0.242600000000    -0.401      
O        O      0.683000000000     0.053100000000     0.242600000000    -0.415      
O        O      0.683000000000     0.553100000000     0.742600000000    -0.403      
O        O      0.183000000000     0.053100000000     0.742600000000    -0.416      
O        O      0.183000000000     0.553100000000     0.242600000000    -0.407      
O        O      0.317000000000     0.053100000000     0.757400000000    -0.413      
O        O      0.317000000000     0.553100000000     0.257400000000    -0.404      
O        O      0.817000000000     0.053100000000     0.257400000000    -0.41       
O        O      0.817000000000     0.553100000000     0.757400000000    -0.399      
O        O      0.683000000000     0.757400000000     0.053100000000    -0.413      
O        O      0.683000000000     0.257400000000     0.553100000000    -0.404      
O        O      0.183000000000     0.757400000000     0.553100000000    -0.405      
O        O      0.183000000000     0.257400000000     0.053100000000    -0.417      
O        O      0.317000000000     0.242600000000     0.053100000000    -0.415      
O        O      0.317000000000     0.742600000000     0.553100000000    -0.403      
O        O      0.817000000000     0.242600000000     0.553100000000    -0.401      
O        O      0.817000000000     0.742600000000     0.053100000000    -0.409      
O        O      0.683000000000     0.242600000000     0.946900000000    -0.375      
O        O      0.683000000000     0.742600000000     0.446900000000    -0.403      
O        O      0.183000000000     0.242600000000     0.446900000000    -0.407      
O        O      0.183000000000     0.742600000000     0.946900000000    -0.376      
O        O      0.317000000000     0.757400000000     0.946900000000    -0.373      
O        O      0.317000000000     0.257400000000     0.446900000000    -0.404      
O        O      0.817000000000     0.757400000000     0.446900000000    -0.399      
O        O      0.817000000000     0.257400000000     0.946900000000    -0.371      
O        O      0.757400000000     0.946900000000     0.317000000000    -0.373      
O        O      0.757400000000     0.446900000000     0.817000000000    -0.399      
O        O      0.257400000000     0.946900000000     0.817000000000    -0.371      
O        O      0.257400000000     0.446900000000     0.317000000000    -0.404      
O        O      0.242600000000     0.946900000000     0.683000000000    -0.375      
O        O      0.242600000000     0.446900000000     0.183000000000    -0.407      
O        O      0.742600000000     0.946900000000     0.183000000000    -0.376      
O        O      0.742600000000     0.446900000000     0.683000000000    -0.403      
O        O      0.242600000000     0.053100000000     0.317000000000    -0.415      
O        O      0.242600000000     0.553100000000     0.817000000000    -0.401      
O        O      0.742600000000     0.053100000000     0.817000000000    -0.409      
O        O      0.742600000000     0.553100000000     0.317000000000    -0.403      
O        O      0.757400000000     0.053100000000     0.683000000000    -0.413      
O        O      0.757400000000     0.553100000000     0.183000000000    -0.405      
O        O      0.257400000000     0.053100000000     0.183000000000    -0.417      
O        O      0.257400000000     0.553100000000     0.683000000000    -0.404      
O        O      0.946900000000     0.683000000000     0.242600000000    -0.375      
O        O      0.946900000000     0.183000000000     0.742600000000    -0.376      
O        O      0.446900000000     0.683000000000     0.742600000000    -0.403      
O        O      0.446900000000     0.183000000000     0.242600000000    -0.407      
O        O      0.946900000000     0.317000000000     0.757400000000    -0.373      
O        O      0.946900000000     0.817000000000     0.257400000000    -0.371      
O        O      0.446900000000     0.317000000000     0.257400000000    -0.404      
O        O      0.446900000000     0.817000000000     0.757400000000    -0.399      
O        O      0.053100000000     0.683000000000     0.757400000000    -0.413      
O        O      0.053100000000     0.183000000000     0.257400000000    -0.417      
O        O      0.553100000000     0.683000000000     0.257400000000    -0.404      
O        O      0.553100000000     0.183000000000     0.757400000000    -0.405      
O        O      0.053100000000     0.317000000000     0.242600000000    -0.415      
O        O      0.053100000000     0.817000000000     0.742600000000    -0.409      
O        O      0.553100000000     0.317000000000     0.742600000000    -0.403      
O        O      0.553100000000     0.817000000000     0.242600000000    -0.401      
Co       Co     0.289760000000     0.289760000000     0.000000000000     1.167      
Cl       Cl     0.350400000000     0.350400000000     0.000000000000    -0.385      
Co       Co     0.289760000000     0.789760000000     0.500000000000     1.188      
Cl       Cl     0.350400000000     0.850400000000     0.500000000000    -0.328      
Co       Co     0.789760000000     0.289760000000     0.500000000000     1.188      
Cl       Cl     0.850400000000     0.350400000000     0.500000000000    -0.328      
Co       Co     0.789760000000     0.789760000000     0.000000000000     1.168      
Cl       Cl     0.850400000000     0.850400000000     0.000000000000    -0.349      
Co       Co     0.710240000000     0.710240000000     0.000000000000     1.167      
Cl       Cl     0.649600000000     0.649600000000     0.000000000000    -0.383      
Co       Co     0.710240000000     0.210240000000     0.500000000000     1.188      
Cl       Cl     0.649600000000     0.149600000000     0.500000000000    -0.353      
Co       Co     0.210240000000     0.710240000000     0.500000000000     1.188      
Cl       Cl     0.149600000000     0.649600000000     0.500000000000    -0.353      
Co       Co     0.210240000000     0.210240000000     0.000000000000     1.167      
Cl       Cl     0.149600000000     0.149600000000     0.000000000000    -0.398      
Co       Co     0.710240000000     0.289760000000     0.000000000000     1.167      
Cl       Cl     0.649600000000     0.350400000000     0.000000000000    -0.384      
Co       Co     0.710240000000     0.789760000000     0.500000000000     1.188      
Cl       Cl     0.649600000000     0.850400000000     0.500000000000    -0.327      
Co       Co     0.210240000000     0.289760000000     0.500000000000     1.188      
Cl       Cl     0.149600000000     0.350400000000     0.500000000000    -0.354      
Co       Co     0.210240000000     0.789760000000     0.000000000000     1.168      
Cl       Cl     0.149600000000     0.850400000000     0.000000000000    -0.374      
Co       Co     0.289760000000     0.710240000000     0.000000000000     1.167      
Cl       Cl     0.350400000000     0.649600000000     0.000000000000    -0.384      
Co       Co     0.289760000000     0.210240000000     0.500000000000     1.188      
Cl       Cl     0.350400000000     0.149600000000     0.500000000000    -0.354      
Co       Co     0.789760000000     0.710240000000     0.500000000000     1.188      
Cl       Cl     0.850400000000     0.649600000000     0.500000000000    -0.327      
Co       Co     0.789760000000     0.210240000000     0.000000000000     1.168      
Cl       Cl     0.850400000000     0.149600000000     0.000000000000    -0.374      
Co       Co     0.000000000000     0.289760000000     0.289760000000     1.167      
Cl       Cl     0.000000000000     0.350400000000     0.350400000000    -0.385      
Co       Co     0.000000000000     0.789760000000     0.789760000000     1.168      
Cl       Cl     0.000000000000     0.850400000000     0.850400000000    -0.349      
Co       Co     0.500000000000     0.289760000000     0.789760000000     1.188      
Cl       Cl     0.500000000000     0.350400000000     0.850400000000    -0.328      
Co       Co     0.500000000000     0.789760000000     0.289760000000     1.188      
Cl       Cl     0.500000000000     0.850400000000     0.350400000000    -0.328      
Co       Co     0.000000000000     0.710240000000     0.710240000000     1.167      
Cl       Cl     0.000000000000     0.649600000000     0.649600000000    -0.383      
Co       Co     0.000000000000     0.210240000000     0.210240000000     1.167      
Cl       Cl     0.000000000000     0.149600000000     0.149600000000    -0.398      
Co       Co     0.500000000000     0.710240000000     0.210240000000     1.188      
Cl       Cl     0.500000000000     0.649600000000     0.149600000000    -0.353      
Co       Co     0.500000000000     0.210240000000     0.710240000000     1.188      
Cl       Cl     0.500000000000     0.149600000000     0.649600000000    -0.353      
Co       Co     0.000000000000     0.710240000000     0.289760000000     1.167      
Cl       Cl     0.000000000000     0.649600000000     0.350400000000    -0.384      
Co       Co     0.000000000000     0.210240000000     0.789760000000     1.168      
Cl       Cl     0.000000000000     0.149600000000     0.850400000000    -0.374      
Co       Co     0.500000000000     0.710240000000     0.789760000000     1.188      
Cl       Cl     0.500000000000     0.649600000000     0.850400000000    -0.327      
Co       Co     0.500000000000     0.210240000000     0.289760000000     1.188      
Cl       Cl     0.500000000000     0.149600000000     0.350400000000    -0.354      
Co       Co     0.000000000000     0.289760000000     0.710240000000     1.167      
Cl       Cl     0.000000000000     0.350400000000     0.649600000000    -0.384      
Co       Co     0.000000000000     0.789760000000     0.210240000000     1.168      
Cl       Cl     0.000000000000     0.850400000000     0.149600000000    -0.374      
Co       Co     0.500000000000     0.289760000000     0.210240000000     1.188      
Cl       Cl     0.500000000000     0.350400000000     0.149600000000    -0.354      
Co       Co     0.500000000000     0.789760000000     0.710240000000     1.188      
Cl       Cl     0.500000000000     0.850400000000     0.649600000000    -0.327      
Co       Co     0.289760000000     0.000000000000     0.289760000000     1.167      
Cl       Cl     0.350400000000     0.000000000000     0.350400000000    -0.385      
Co       Co     0.289760000000     0.500000000000     0.789760000000     1.188      
Cl       Cl     0.350400000000     0.500000000000     0.850400000000    -0.328      
Co       Co     0.789760000000     0.000000000000     0.789760000000     1.168      
Cl       Cl     0.850400000000     0.000000000000     0.850400000000    -0.349      
Co       Co     0.789760000000     0.500000000000     0.289760000000     1.188      
Cl       Cl     0.850400000000     0.500000000000     0.350400000000    -0.328      
Co       Co     0.710240000000     0.000000000000     0.710240000000     1.167      
Cl       Cl     0.649600000000     0.000000000000     0.649600000000    -0.383      
Co       Co     0.710240000000     0.500000000000     0.210240000000     1.188      
Cl       Cl     0.649600000000     0.500000000000     0.149600000000    -0.353      
Co       Co     0.210240000000     0.000000000000     0.210240000000     1.167      
Cl       Cl     0.149600000000     0.000000000000     0.149600000000    -0.398      
Co       Co     0.210240000000     0.500000000000     0.710240000000     1.188      
Cl       Cl     0.149600000000     0.500000000000     0.649600000000    -0.353      
Co       Co     0.289760000000     0.000000000000     0.710240000000     1.167      
Cl       Cl     0.350400000000     0.000000000000     0.649600000000    -0.384      
Co       Co     0.289760000000     0.500000000000     0.210240000000     1.188      
Cl       Cl     0.350400000000     0.500000000000     0.149600000000    -0.354      
Co       Co     0.789760000000     0.000000000000     0.210240000000     1.168      
Cl       Cl     0.850400000000     0.000000000000     0.149600000000    -0.374      
Co       Co     0.789760000000     0.500000000000     0.710240000000     1.188      
Cl       Cl     0.850400000000     0.500000000000     0.649600000000    -0.327      
Co       Co     0.710240000000     0.000000000000     0.289760000000     1.167      
Cl       Cl     0.649600000000     0.000000000000     0.350400000000    -0.384      
Co       Co     0.710240000000     0.500000000000     0.789760000000     1.188      
Cl       Cl     0.649600000000     0.500000000000     0.850400000000    -0.327      
Co       Co     0.210240000000     0.000000000000     0.789760000000     1.168      
Cl       Cl     0.149600000000     0.000000000000     0.850400000000    -0.374      
Co       Co     0.210240000000     0.500000000000     0.289760000000     1.188      
Cl       Cl     0.149600000000     0.500000000000     0.350400000000    -0.354      
C        C      0.202400000000     0.297600000000     0.069000000000     0.357      
C        C      0.177800000000     0.322200000000     0.114300000000    -0.084      
C        C      0.202400000000     0.797600000000     0.569000000000     0.358      
C        C      0.177800000000     0.822200000000     0.614300000000    -0.071      
C        C      0.797600000000     0.702400000000     0.069000000000     0.356      
C        C      0.822200000000     0.677800000000     0.114300000000    -0.073      
C        C      0.797600000000     0.202400000000     0.569000000000     0.358      
C        C      0.822200000000     0.177800000000     0.614300000000    -0.071      
C        C      0.297600000000     0.202400000000     0.069000000000     0.357      
C        C      0.322200000000     0.177800000000     0.114300000000    -0.084      
C        C      0.797600000000     0.297600000000     0.931000000000     0.351      
C        C      0.822200000000     0.322200000000     0.885700000000    -0.055      
C        C      0.797600000000     0.797600000000     0.431000000000     0.357      
C        C      0.822200000000     0.822200000000     0.385700000000    -0.06       
C        C      0.297600000000     0.297600000000     0.431000000000     0.359      
C        C      0.322200000000     0.322200000000     0.385700000000    -0.076      
C        C      0.202400000000     0.702400000000     0.931000000000     0.352      
C        C      0.177800000000     0.677800000000     0.885700000000    -0.065      
C        C      0.202400000000     0.202400000000     0.431000000000     0.359      
C        C      0.177800000000     0.177800000000     0.385700000000    -0.082      
C        C      0.069000000000     0.202400000000     0.297600000000     0.357      
C        C      0.114300000000     0.177800000000     0.322200000000    -0.084      
C        C      0.569000000000     0.202400000000     0.797600000000     0.358      
C        C      0.614300000000     0.177800000000     0.822200000000    -0.071      
C        C      0.069000000000     0.797600000000     0.702400000000     0.356      
C        C      0.114300000000     0.822200000000     0.677800000000    -0.073      
C        C      0.069000000000     0.297600000000     0.202400000000     0.357      
C        C      0.114300000000     0.322200000000     0.177800000000    -0.084      
C        C      0.569000000000     0.797600000000     0.202400000000     0.358      
C        C      0.614300000000     0.822200000000     0.177800000000    -0.071      
C        C      0.931000000000     0.797600000000     0.297600000000     0.351      
C        C      0.885700000000     0.822200000000     0.322200000000    -0.055      
C        C      0.431000000000     0.797600000000     0.797600000000     0.357      
C        C      0.385700000000     0.822200000000     0.822200000000    -0.06       
C        C      0.431000000000     0.297600000000     0.297600000000     0.359      
C        C      0.385700000000     0.322200000000     0.322200000000    -0.076      
C        C      0.931000000000     0.202400000000     0.702400000000     0.352      
C        C      0.885700000000     0.177800000000     0.677800000000    -0.065      
C        C      0.431000000000     0.202400000000     0.202400000000     0.359      
C        C      0.385700000000     0.177800000000     0.177800000000    -0.082      
C        C      0.297600000000     0.069000000000     0.202400000000     0.357      
C        C      0.322200000000     0.114300000000     0.177800000000    -0.084      
C        C      0.297600000000     0.569000000000     0.702400000000     0.359      
C        C      0.322200000000     0.614300000000     0.677800000000    -0.075      
C        C      0.702400000000     0.069000000000     0.797600000000     0.356      
C        C      0.677800000000     0.114300000000     0.822200000000    -0.073      
C        C      0.702400000000     0.569000000000     0.297600000000     0.359      
C        C      0.677800000000     0.614300000000     0.322200000000    -0.075      
C        C      0.202400000000     0.069000000000     0.297600000000     0.357      
C        C      0.177800000000     0.114300000000     0.322200000000    -0.084      
C        C      0.297600000000     0.931000000000     0.797600000000     0.351      
C        C      0.322200000000     0.885700000000     0.822200000000    -0.055      
C        C      0.297600000000     0.431000000000     0.297600000000     0.359      
C        C      0.322200000000     0.385700000000     0.322200000000    -0.076      
C        C      0.702400000000     0.931000000000     0.202400000000     0.352      
C        C      0.677800000000     0.885700000000     0.177800000000    -0.065      
C        C      0.702400000000     0.431000000000     0.702400000000     0.358      
C        C      0.677800000000     0.385700000000     0.677800000000    -0.074      
C        C      0.202400000000     0.431000000000     0.202400000000     0.359      
C        C      0.177800000000     0.385700000000     0.177800000000    -0.082      
C        C      0.297600000000     0.202400000000     0.931000000000     0.352      
C        C      0.322200000000     0.177800000000     0.885700000000    -0.065      
C        C      0.297600000000     0.702400000000     0.431000000000     0.359      
C        C      0.322200000000     0.677800000000     0.385700000000    -0.075      
C        C      0.702400000000     0.797600000000     0.931000000000     0.351      
C        C      0.677800000000     0.822200000000     0.885700000000    -0.054      
C        C      0.702400000000     0.297600000000     0.431000000000     0.359      
C        C      0.677800000000     0.322200000000     0.385700000000    -0.075      
C        C      0.202400000000     0.297600000000     0.931000000000     0.352      
C        C      0.177800000000     0.322200000000     0.885700000000    -0.065      
C        C      0.297600000000     0.797600000000     0.069000000000     0.356      
C        C      0.322200000000     0.822200000000     0.114300000000    -0.074      
C        C      0.297600000000     0.297600000000     0.569000000000     0.359      
C        C      0.322200000000     0.322200000000     0.614300000000    -0.076      
C        C      0.702400000000     0.202400000000     0.069000000000     0.357      
C        C      0.677800000000     0.177800000000     0.114300000000    -0.084      
C        C      0.702400000000     0.702400000000     0.569000000000     0.358      
C        C      0.677800000000     0.677800000000     0.614300000000    -0.074      
C        C      0.202400000000     0.202400000000     0.569000000000     0.359      
C        C      0.177800000000     0.177800000000     0.614300000000    -0.082      
C        C      0.202400000000     0.069000000000     0.702400000000     0.357      
C        C      0.177800000000     0.114300000000     0.677800000000    -0.084      
C        C      0.202400000000     0.569000000000     0.202400000000     0.359      
C        C      0.177800000000     0.614300000000     0.177800000000    -0.082      
C        C      0.797600000000     0.069000000000     0.297600000000     0.356      
C        C      0.822200000000     0.114300000000     0.322200000000    -0.074      
C        C      0.797600000000     0.569000000000     0.797600000000     0.357      
C        C      0.822200000000     0.614300000000     0.822200000000    -0.06       
C        C      0.297600000000     0.569000000000     0.297600000000     0.359      
C        C      0.322200000000     0.614300000000     0.322200000000    -0.076      
C        C      0.797600000000     0.931000000000     0.702400000000     0.351      
C        C      0.822200000000     0.885700000000     0.677800000000    -0.054      
C        C      0.797600000000     0.431000000000     0.202400000000     0.358      
C        C      0.822200000000     0.385700000000     0.177800000000    -0.071      
C        C      0.297600000000     0.931000000000     0.202400000000     0.352      
C        C      0.322200000000     0.885700000000     0.177800000000    -0.065      
C        C      0.202400000000     0.931000000000     0.297600000000     0.352      
C        C      0.177800000000     0.885700000000     0.322200000000    -0.065      
C        C      0.202400000000     0.431000000000     0.797600000000     0.358      
C        C      0.177800000000     0.385700000000     0.822200000000    -0.071      
C        C      0.069000000000     0.297600000000     0.797600000000     0.356      
C        C      0.114300000000     0.322200000000     0.822200000000    -0.074      
C        C      0.569000000000     0.297600000000     0.297600000000     0.359      
C        C      0.614300000000     0.322200000000     0.322200000000    -0.076      
C        C      0.069000000000     0.702400000000     0.202400000000     0.357      
C        C      0.114300000000     0.677800000000     0.177800000000    -0.084      
C        C      0.569000000000     0.702400000000     0.702400000000     0.358      
C        C      0.614300000000     0.677800000000     0.677800000000    -0.074      
C        C      0.569000000000     0.202400000000     0.202400000000     0.359      
C        C      0.614300000000     0.177800000000     0.177800000000    -0.082      
C        C      0.931000000000     0.297600000000     0.202400000000     0.352      
C        C      0.885700000000     0.322200000000     0.177800000000    -0.065      
C        C      0.431000000000     0.297600000000     0.702400000000     0.359      
C        C      0.385700000000     0.322200000000     0.677800000000    -0.075      
C        C      0.931000000000     0.702400000000     0.797600000000     0.351      
C        C      0.885700000000     0.677800000000     0.822200000000    -0.054      
C        C      0.931000000000     0.202400000000     0.297600000000     0.352      
C        C      0.885700000000     0.177800000000     0.322200000000    -0.065      
C        C      0.431000000000     0.702400000000     0.297600000000     0.359      
C        C      0.385700000000     0.677800000000     0.322200000000    -0.075      
C        C      0.797600000000     0.702400000000     0.931000000000     0.351      
C        C      0.822200000000     0.677800000000     0.885700000000    -0.054      
C        C      0.797600000000     0.202400000000     0.431000000000     0.358      
C        C      0.822200000000     0.177800000000     0.385700000000    -0.071      
C        C      0.202400000000     0.797600000000     0.431000000000     0.358      
C        C      0.177800000000     0.822200000000     0.385700000000    -0.071      
C        C      0.202400000000     0.702400000000     0.069000000000     0.357      
C        C      0.177800000000     0.677800000000     0.114300000000    -0.084      
C        C      0.797600000000     0.297600000000     0.069000000000     0.356      
C        C      0.822200000000     0.322200000000     0.114300000000    -0.074      
C        C      0.797600000000     0.797600000000     0.569000000000     0.357      
C        C      0.822200000000     0.822200000000     0.614300000000    -0.06       
C        C      0.931000000000     0.797600000000     0.702400000000     0.351      
C        C      0.885700000000     0.822200000000     0.677800000000    -0.054      
C        C      0.431000000000     0.797600000000     0.202400000000     0.358      
C        C      0.385700000000     0.822200000000     0.177800000000    -0.071      
C        C      0.431000000000     0.202400000000     0.797600000000     0.358      
C        C      0.385700000000     0.177800000000     0.822200000000    -0.071      
C        C      0.069000000000     0.202400000000     0.702400000000     0.357      
C        C      0.114300000000     0.177800000000     0.677800000000    -0.084      
C        C      0.069000000000     0.797600000000     0.297600000000     0.356      
C        C      0.114300000000     0.822200000000     0.322200000000    -0.074      
C        C      0.569000000000     0.797600000000     0.797600000000     0.357      
C        C      0.614300000000     0.822200000000     0.822200000000    -0.06       
C        C      0.702400000000     0.931000000000     0.797600000000     0.351      
C        C      0.677800000000     0.885700000000     0.822200000000    -0.054      
C        C      0.702400000000     0.431000000000     0.297600000000     0.359      
C        C      0.677800000000     0.385700000000     0.322200000000    -0.075      
C        C      0.297600000000     0.431000000000     0.702400000000     0.359      
C        C      0.322200000000     0.385700000000     0.677800000000    -0.075      
C        C      0.702400000000     0.069000000000     0.202400000000     0.357      
C        C      0.677800000000     0.114300000000     0.177800000000    -0.084      
C        C      0.702400000000     0.569000000000     0.702400000000     0.358      
C        C      0.677800000000     0.614300000000     0.677800000000    -0.074      
C        C      0.297600000000     0.069000000000     0.797600000000     0.356      
C        C      0.322200000000     0.114300000000     0.822200000000    -0.074      
C        C      0.702400000000     0.797600000000     0.069000000000     0.356      
C        C      0.677800000000     0.822200000000     0.114300000000    -0.073      
C        C      0.702400000000     0.297600000000     0.569000000000     0.359      
C        C      0.677800000000     0.322200000000     0.614300000000    -0.075      
C        C      0.297600000000     0.702400000000     0.569000000000     0.359      
C        C      0.322200000000     0.677800000000     0.614300000000    -0.075      
C        C      0.702400000000     0.202400000000     0.931000000000     0.352      
C        C      0.677800000000     0.177800000000     0.885700000000    -0.065      
C        C      0.702400000000     0.702400000000     0.431000000000     0.358      
C        C      0.677800000000     0.677800000000     0.385700000000    -0.074      
C        C      0.297600000000     0.797600000000     0.931000000000     0.351      
C        C      0.322200000000     0.822200000000     0.885700000000    -0.055      
C        C      0.797600000000     0.931000000000     0.297600000000     0.351      
C        C      0.822200000000     0.885700000000     0.322200000000    -0.055      
C        C      0.797600000000     0.431000000000     0.797600000000     0.357      
C        C      0.822200000000     0.385700000000     0.822200000000    -0.06       
C        C      0.202400000000     0.931000000000     0.702400000000     0.352      
C        C      0.177800000000     0.885700000000     0.677800000000    -0.065      
C        C      0.202400000000     0.569000000000     0.797600000000     0.358      
C        C      0.177800000000     0.614300000000     0.822200000000    -0.071      
C        C      0.797600000000     0.069000000000     0.702400000000     0.356      
C        C      0.822200000000     0.114300000000     0.677800000000    -0.073      
C        C      0.797600000000     0.569000000000     0.202400000000     0.358      
C        C      0.822200000000     0.614300000000     0.177800000000    -0.071      
C        C      0.931000000000     0.702400000000     0.202400000000     0.352      
C        C      0.885700000000     0.677800000000     0.177800000000    -0.065      
C        C      0.431000000000     0.702400000000     0.702400000000     0.358      
C        C      0.385700000000     0.677800000000     0.677800000000    -0.074      
C        C      0.931000000000     0.297600000000     0.797600000000     0.351      
C        C      0.885700000000     0.322200000000     0.822200000000    -0.055      
C        C      0.069000000000     0.702400000000     0.797600000000     0.356      
C        C      0.114300000000     0.677800000000     0.822200000000    -0.073      
C        C      0.569000000000     0.702400000000     0.297600000000     0.359      
C        C      0.614300000000     0.677800000000     0.322200000000    -0.075      
C        C      0.569000000000     0.297600000000     0.702400000000     0.359      
C        C      0.614300000000     0.322200000000     0.677800000000    -0.075      
C        C      0.198400000000     0.365000000000     0.135000000000     0.032      
H        H      0.226300000000     0.379800000000     0.120200000000     0.069      
C        C      0.698400000000     0.365000000000     0.635000000000     0.029      
H        H      0.726300000000     0.379800000000     0.620200000000     0.075      
C        C      0.801600000000     0.635000000000     0.135000000000     0.026      
H        H      0.773700000000     0.620200000000     0.120200000000     0.073      
C        C      0.301600000000     0.635000000000     0.635000000000     0.029      
H        H      0.273700000000     0.620200000000     0.620200000000     0.074      
C        C      0.301600000000     0.135000000000     0.135000000000     0.032      
H        H      0.273700000000     0.120200000000     0.120200000000     0.066      
C        C      0.801600000000     0.365000000000     0.865000000000     0.019      
H        H      0.773700000000     0.379800000000     0.879800000000     0.085      
C        C      0.301600000000     0.365000000000     0.365000000000     0.031      
H        H      0.273700000000     0.379800000000     0.379800000000     0.074      
C        C      0.198400000000     0.635000000000     0.865000000000     0.024      
H        H      0.226300000000     0.620200000000     0.879800000000     0.082      
C        C      0.198400000000     0.135000000000     0.365000000000     0.032      
H        H      0.226300000000     0.120200000000     0.379800000000     0.069      
C        C      0.698400000000     0.635000000000     0.365000000000     0.029      
H        H      0.726300000000     0.620200000000     0.379800000000     0.075      
C        C      0.135000000000     0.198400000000     0.365000000000     0.032      
H        H      0.120200000000     0.226300000000     0.379800000000     0.069      
C        C      0.135000000000     0.698400000000     0.865000000000     0.024      
H        H      0.120200000000     0.726300000000     0.879800000000     0.08       
C        C      0.135000000000     0.801600000000     0.635000000000     0.026      
H        H      0.120200000000     0.773700000000     0.620200000000     0.073      
C        C      0.135000000000     0.301600000000     0.135000000000     0.032      
H        H      0.120200000000     0.273700000000     0.120200000000     0.066      
C        C      0.865000000000     0.801600000000     0.365000000000     0.019      
H        H      0.879800000000     0.773700000000     0.379800000000     0.085      
C        C      0.865000000000     0.301600000000     0.865000000000     0.017      
H        H      0.879800000000     0.273700000000     0.879800000000     0.091      
C        C      0.365000000000     0.301600000000     0.365000000000     0.031      
H        H      0.379800000000     0.273700000000     0.379800000000     0.074      
C        C      0.865000000000     0.198400000000     0.635000000000     0.024      
H        H      0.879800000000     0.226300000000     0.620200000000     0.082      
C        C      0.865000000000     0.698400000000     0.135000000000     0.024      
H        H      0.879800000000     0.726300000000     0.120200000000     0.08       
C        C      0.365000000000     0.198400000000     0.135000000000     0.032      
H        H      0.379800000000     0.226300000000     0.120200000000     0.069      
C        C      0.365000000000     0.135000000000     0.198400000000     0.032      
H        H      0.379800000000     0.120200000000     0.226300000000     0.069      
C        C      0.365000000000     0.635000000000     0.698400000000     0.029      
H        H      0.379800000000     0.620200000000     0.726300000000     0.075      
C        C      0.635000000000     0.135000000000     0.801600000000     0.026      
H        H      0.620200000000     0.120200000000     0.773700000000     0.073      
C        C      0.635000000000     0.635000000000     0.301600000000     0.029      
H        H      0.620200000000     0.620200000000     0.273700000000     0.074      
C        C      0.135000000000     0.135000000000     0.301600000000     0.032      
H        H      0.120200000000     0.120200000000     0.273700000000     0.066      
C        C      0.365000000000     0.865000000000     0.801600000000     0.019      
H        H      0.379800000000     0.879800000000     0.773700000000     0.085      
C        C      0.365000000000     0.365000000000     0.301600000000     0.031      
H        H      0.379800000000     0.379800000000     0.273700000000     0.074      
C        C      0.635000000000     0.865000000000     0.198400000000     0.024      
H        H      0.620200000000     0.879800000000     0.226300000000     0.082      
C        C      0.635000000000     0.365000000000     0.698400000000     0.029      
H        H      0.620200000000     0.379800000000     0.726300000000     0.075      
C        C      0.135000000000     0.365000000000     0.198400000000     0.032      
H        H      0.120200000000     0.379800000000     0.226300000000     0.069      
C        C      0.365000000000     0.198400000000     0.865000000000     0.025      
H        H      0.379800000000     0.226300000000     0.879800000000     0.081      
C        C      0.365000000000     0.698400000000     0.365000000000     0.03       
H        H      0.379800000000     0.726300000000     0.379800000000     0.075      
C        C      0.635000000000     0.801600000000     0.865000000000     0.019      
H        H      0.620200000000     0.773700000000     0.879800000000     0.085      
C        C      0.635000000000     0.301600000000     0.365000000000     0.03       
H        H      0.620200000000     0.273700000000     0.379800000000     0.074      
C        C      0.135000000000     0.801600000000     0.365000000000     0.027      
H        H      0.120200000000     0.773700000000     0.379800000000     0.073      
C        C      0.365000000000     0.801600000000     0.135000000000     0.027      
H        H      0.379800000000     0.773700000000     0.120200000000     0.073      
C        C      0.365000000000     0.301600000000     0.635000000000     0.03       
H        H      0.379800000000     0.273700000000     0.620200000000     0.074      
C        C      0.635000000000     0.198400000000     0.135000000000     0.032      
H        H      0.620200000000     0.226300000000     0.120200000000     0.069      
C        C      0.635000000000     0.698400000000     0.635000000000     0.029      
H        H      0.620200000000     0.726300000000     0.620200000000     0.075      
C        C      0.135000000000     0.698400000000     0.135000000000     0.032      
H        H      0.120200000000     0.726300000000     0.120200000000     0.068      
C        C      0.198400000000     0.135000000000     0.635000000000     0.032      
H        H      0.226300000000     0.120200000000     0.620200000000     0.069      
C        C      0.698400000000     0.135000000000     0.135000000000     0.032      
H        H      0.726300000000     0.120200000000     0.120200000000     0.068      
C        C      0.801600000000     0.135000000000     0.365000000000     0.027      
H        H      0.773700000000     0.120200000000     0.379800000000     0.073      
C        C      0.301600000000     0.135000000000     0.865000000000     0.025      
H        H      0.273700000000     0.120200000000     0.879800000000     0.078      
C        C      0.801600000000     0.865000000000     0.635000000000     0.019      
H        H      0.773700000000     0.879800000000     0.620200000000     0.085      
C        C      0.801600000000     0.365000000000     0.135000000000     0.027      
H        H      0.773700000000     0.379800000000     0.120200000000     0.073      
C        C      0.301600000000     0.865000000000     0.135000000000     0.025      
H        H      0.273700000000     0.879800000000     0.120200000000     0.078      
C        C      0.198400000000     0.865000000000     0.365000000000     0.025      
H        H      0.226300000000     0.879800000000     0.379800000000     0.081      
C        C      0.698400000000     0.865000000000     0.865000000000     0.016      
H        H      0.726300000000     0.879800000000     0.879800000000     0.092      
C        C      0.698400000000     0.365000000000     0.365000000000     0.03       
H        H      0.726300000000     0.379800000000     0.379800000000     0.075      
C        C      0.135000000000     0.365000000000     0.801600000000     0.027      
H        H      0.120200000000     0.379800000000     0.773700000000     0.073      
C        C      0.135000000000     0.865000000000     0.301600000000     0.025      
H        H      0.120200000000     0.879800000000     0.273700000000     0.078      
C        C      0.135000000000     0.635000000000     0.198400000000     0.032      
H        H      0.120200000000     0.620200000000     0.226300000000     0.069      
C        C      0.135000000000     0.135000000000     0.698400000000     0.032      
H        H      0.120200000000     0.120200000000     0.726300000000     0.068      
C        C      0.865000000000     0.365000000000     0.198400000000     0.025      
H        H      0.879800000000     0.379800000000     0.226300000000     0.081      
C        C      0.865000000000     0.865000000000     0.698400000000     0.016      
H        H      0.879800000000     0.879800000000     0.726300000000     0.092      
C        C      0.365000000000     0.365000000000     0.698400000000     0.03       
H        H      0.379800000000     0.379800000000     0.726300000000     0.075      
C        C      0.865000000000     0.635000000000     0.801600000000     0.019      
H        H      0.879800000000     0.620200000000     0.773700000000     0.085      
C        C      0.865000000000     0.135000000000     0.301600000000     0.025      
H        H      0.879800000000     0.120200000000     0.273700000000     0.078      
C        C      0.365000000000     0.135000000000     0.801600000000     0.027      
H        H      0.379800000000     0.120200000000     0.773700000000     0.073      
C        C      0.801600000000     0.635000000000     0.865000000000     0.019      
H        H      0.773700000000     0.620200000000     0.879800000000     0.085      
C        C      0.301600000000     0.635000000000     0.365000000000     0.03       
H        H      0.273700000000     0.620200000000     0.379800000000     0.074      
C        C      0.198400000000     0.365000000000     0.865000000000     0.025      
H        H      0.226300000000     0.379800000000     0.879800000000     0.081      
C        C      0.198400000000     0.635000000000     0.135000000000     0.032      
H        H      0.226300000000     0.620200000000     0.120200000000     0.069      
C        C      0.698400000000     0.635000000000     0.635000000000     0.029      
H        H      0.726300000000     0.620200000000     0.620200000000     0.075      
C        C      0.301600000000     0.365000000000     0.635000000000     0.03       
H        H      0.273700000000     0.379800000000     0.620200000000     0.074      
C        C      0.865000000000     0.801600000000     0.635000000000     0.019      
H        H      0.879800000000     0.773700000000     0.620200000000     0.085      
C        C      0.865000000000     0.301600000000     0.135000000000     0.025      
H        H      0.879800000000     0.273700000000     0.120200000000     0.078      
C        C      0.865000000000     0.198400000000     0.365000000000     0.025      
H        H      0.879800000000     0.226300000000     0.379800000000     0.081      
C        C      0.865000000000     0.698400000000     0.865000000000     0.016      
H        H      0.879800000000     0.726300000000     0.879800000000     0.092      
C        C      0.135000000000     0.198400000000     0.635000000000     0.032      
H        H      0.120200000000     0.226300000000     0.620200000000     0.069      
C        C      0.135000000000     0.301600000000     0.865000000000     0.025      
H        H      0.120200000000     0.273700000000     0.879800000000     0.078      
C        C      0.635000000000     0.865000000000     0.801600000000     0.019      
H        H      0.620200000000     0.879800000000     0.773700000000     0.085      
C        C      0.635000000000     0.365000000000     0.301600000000     0.03       
H        H      0.620200000000     0.379800000000     0.273700000000     0.074      
C        C      0.365000000000     0.865000000000     0.198400000000     0.025      
H        H      0.379800000000     0.879800000000     0.226300000000     0.081      
C        C      0.635000000000     0.135000000000     0.198400000000     0.032      
H        H      0.620200000000     0.120200000000     0.226300000000     0.069      
C        C      0.635000000000     0.635000000000     0.698400000000     0.029      
H        H      0.620200000000     0.620200000000     0.726300000000     0.075      
C        C      0.365000000000     0.635000000000     0.301600000000     0.03       
H        H      0.379800000000     0.620200000000     0.273700000000     0.074      
C        C      0.635000000000     0.801600000000     0.135000000000     0.026      
H        H      0.620200000000     0.773700000000     0.120200000000     0.073      
C        C      0.635000000000     0.301600000000     0.635000000000     0.029      
H        H      0.620200000000     0.273700000000     0.620200000000     0.074      
C        C      0.365000000000     0.698400000000     0.635000000000     0.029      
H        H      0.379800000000     0.726300000000     0.620200000000     0.075      
C        C      0.635000000000     0.198400000000     0.865000000000     0.024      
H        H      0.620200000000     0.226300000000     0.879800000000     0.082      
C        C      0.635000000000     0.698400000000     0.365000000000     0.029      
H        H      0.620200000000     0.726300000000     0.379800000000     0.075      
C        C      0.365000000000     0.801600000000     0.865000000000     0.019      
H        H      0.379800000000     0.773700000000     0.879800000000     0.085      
C        C      0.801600000000     0.865000000000     0.365000000000     0.019      
H        H      0.773700000000     0.879800000000     0.379800000000     0.085      
C        C      0.301600000000     0.865000000000     0.865000000000     0.017      
H        H      0.273700000000     0.879800000000     0.879800000000     0.091      
C        C      0.198400000000     0.865000000000     0.635000000000     0.024      
H        H      0.226300000000     0.879800000000     0.620200000000     0.082      
C        C      0.698400000000     0.865000000000     0.135000000000     0.024      
H        H      0.726300000000     0.879800000000     0.120200000000     0.08       
C        C      0.698400000000     0.135000000000     0.865000000000     0.024      
H        H      0.726300000000     0.120200000000     0.879800000000     0.08       
C        C      0.801600000000     0.135000000000     0.635000000000     0.026      
H        H      0.773700000000     0.120200000000     0.620200000000     0.073      
C        C      0.865000000000     0.635000000000     0.198400000000     0.024      
H        H      0.879800000000     0.620200000000     0.226300000000     0.082      
C        C      0.865000000000     0.135000000000     0.698400000000     0.024      
H        H      0.879800000000     0.120200000000     0.726300000000     0.08       
C        C      0.865000000000     0.365000000000     0.801600000000     0.019      
H        H      0.879800000000     0.379800000000     0.773700000000     0.085      
C        C      0.865000000000     0.865000000000     0.301600000000     0.017      
H        H      0.879800000000     0.879800000000     0.273700000000     0.091      
C        C      0.135000000000     0.635000000000     0.801600000000     0.026      
H        H      0.120200000000     0.620200000000     0.773700000000     0.073      
C        C      0.135000000000     0.865000000000     0.698400000000     0.024      
H        H      0.120200000000     0.879800000000     0.726300000000     0.08       


