data_ABETIN_clean

_audit_creation_method RASPA-1.0
_audit_creation_date 2022-9-14
_audit_author_name 'Xiaoqi Zhang'

_cell_length_a    26.9629
_cell_length_b    26.9629
_cell_length_c    27.5365
_cell_angle_alpha 90
_cell_angle_beta  90
_cell_angle_gamma 90
_cell_volume      20019

_symmetry_cell_setting          triclinic
_symmetry_space_group_name_Hall 'P 1'
_symmetry_space_group_name_H-M  'P 1'
_symmetry_Int_Tables_number     1

_symmetry_equiv_pos_as_xyz 'x,y,z'

loop_
_atom_site_label
_atom_site_type_symbol
_atom_site_fract_x
_atom_site_fract_y
_atom_site_fract_z
_atom_site_charge
N        N      0.418500000000     0.487700000000     0.689700000000    -0.166      
N        N      0.691900000000     0.416600000000     0.485500000000    -0.166      
N        N      0.918500000000     0.987700000000     0.189700000000    -0.166      
N        N      0.191900000000     0.916600000000     0.985500000000    -0.166      
N        N      0.081500000000     0.512300000000     0.189700000000    -0.166      
N        N      0.808100000000     0.583400000000     0.985500000000    -0.166      
N        N      0.581500000000     0.012300000000     0.689700000000    -0.166      
N        N      0.308100000000     0.083400000000     0.485500000000    -0.166      
N        N      0.762300000000     0.168500000000     0.939700000000    -0.166      
N        N      0.833400000000     0.441900000000     0.735500000000    -0.166      
N        N      0.262300000000     0.668500000000     0.439700000000    -0.166      
N        N      0.333400000000     0.941900000000     0.235500000000    -0.166      
N        N      0.737700000000     0.831500000000     0.439700000000    -0.166      
N        N      0.666600000000     0.558100000000     0.235500000000    -0.166      
N        N      0.237700000000     0.331500000000     0.939700000000    -0.166      
N        N      0.166600000000     0.058100000000     0.735500000000    -0.166      
N        N      0.081500000000     0.487700000000     0.310300000000    -0.166      
N        N      0.808100000000     0.416600000000     0.514500000000    -0.166      
N        N      0.581500000000     0.987700000000     0.810300000000    -0.166      
N        N      0.308100000000     0.916600000000     0.014500000000    -0.166      
N        N      0.418500000000     0.512300000000     0.810300000000    -0.166      
N        N      0.691900000000     0.583400000000     0.014500000000    -0.166      
N        N      0.918500000000     0.012300000000     0.310300000000    -0.166      
N        N      0.191900000000     0.083400000000     0.514500000000    -0.166      
N        N      0.737700000000     0.168500000000     0.060300000000    -0.166      
N        N      0.666600000000     0.441900000000     0.264500000000    -0.166      
N        N      0.237700000000     0.668500000000     0.560300000000    -0.166      
N        N      0.166600000000     0.941900000000     0.764500000000    -0.166      
N        N      0.762300000000     0.831500000000     0.560300000000    -0.166      
N        N      0.833400000000     0.558100000000     0.764500000000    -0.166      
N        N      0.262300000000     0.331500000000     0.060300000000    -0.166      
N        N      0.333400000000     0.058100000000     0.264500000000    -0.166      
N        N      0.581500000000     0.512300000000     0.310300000000    -0.166      
N        N      0.308100000000     0.583400000000     0.514500000000    -0.166      
N        N      0.081500000000     0.012300000000     0.810300000000    -0.166      
N        N      0.808100000000     0.083400000000     0.014500000000    -0.166      
N        N      0.918500000000     0.487700000000     0.810300000000    -0.166      
N        N      0.191900000000     0.416600000000     0.014500000000    -0.166      
N        N      0.418500000000     0.987700000000     0.310300000000    -0.166      
N        N      0.691900000000     0.916600000000     0.514500000000    -0.166      
N        N      0.237700000000     0.831500000000     0.060300000000    -0.166      
N        N      0.166600000000     0.558100000000     0.264500000000    -0.166      
N        N      0.737700000000     0.331500000000     0.560300000000    -0.166      
N        N      0.666600000000     0.058100000000     0.764500000000    -0.166      
N        N      0.262300000000     0.168500000000     0.560300000000    -0.166      
N        N      0.333400000000     0.441900000000     0.764500000000    -0.166      
N        N      0.762300000000     0.668500000000     0.060300000000    -0.166      
N        N      0.833400000000     0.941900000000     0.264500000000    -0.166      
N        N      0.918500000000     0.512300000000     0.689700000000    -0.166      
N        N      0.191900000000     0.583400000000     0.485500000000    -0.166      
N        N      0.418500000000     0.012300000000     0.189700000000    -0.166      
N        N      0.691900000000     0.083400000000     0.985500000000    -0.166      
N        N      0.581500000000     0.487700000000     0.189700000000    -0.166      
N        N      0.308100000000     0.416600000000     0.985500000000    -0.166      
N        N      0.081500000000     0.987700000000     0.689700000000    -0.166      
N        N      0.808100000000     0.916600000000     0.485500000000    -0.166      
N        N      0.262300000000     0.831500000000     0.939700000000    -0.166      
N        N      0.333400000000     0.558100000000     0.735500000000    -0.166      
N        N      0.762300000000     0.331500000000     0.439700000000    -0.166      
N        N      0.833400000000     0.058100000000     0.235500000000    -0.166      
N        N      0.237700000000     0.168500000000     0.439700000000    -0.166      
N        N      0.166600000000     0.441900000000     0.235500000000    -0.166      
N        N      0.737700000000     0.668500000000     0.939700000000    -0.166      
N        N      0.666600000000     0.941900000000     0.735500000000    -0.166      
C        C      0.395700000000     0.467000000000     0.651000000000     0.082      
C        C      0.413900000000     0.470100000000     0.604400000000     0.082      
C        C      0.458500000000     0.495500000000     0.596500000000     0.082      
C        C      0.483200000000     0.514300000000     0.636400000000     0.082      
C        C      0.461500000000     0.510400000000     0.682000000000     0.082      
C        C      0.479700000000     0.499400000000     0.547400000000     0.082      
C        C      0.528600000000     0.485300000000     0.539000000000     0.082      
C        C      0.549400000000     0.484900000000     0.493200000000     0.082      
C        C      0.599600000000     0.463500000000     0.488000000000     0.082      
C        C      0.638300000000     0.479700000000     0.517100000000     0.082      
C        C      0.683600000000     0.455400000000     0.514800000000     0.082      
C        C      0.655000000000     0.402000000000     0.456800000000     0.082      
C        C      0.608300000000     0.423700000000     0.457100000000     0.082      
C        C      0.895700000000     0.967000000000     0.151000000000     0.082      
C        C      0.913900000000     0.970100000000     0.104400000000     0.082      
C        C      0.958500000000     0.995500000000     0.096500000000     0.082      
C        C      0.983200000000     0.014300000000     0.136400000000     0.082      
C        C      0.961500000000     0.010400000000     0.182000000000     0.082      
C        C      0.979700000000     0.999400000000     0.047400000000     0.082      
C        C      0.028600000000     0.985300000000     0.039000000000     0.082      
C        C      0.049400000000     0.984900000000     0.993200000000     0.082      
C        C      0.099600000000     0.963500000000     0.988000000000     0.082      
C        C      0.138300000000     0.979700000000     0.017100000000     0.082      
C        C      0.183600000000     0.955400000000     0.014800000000     0.082      
C        C      0.155000000000     0.902000000000     0.956800000000     0.082      
C        C      0.108300000000     0.923700000000     0.957100000000     0.082      
C        C      0.104300000000     0.533000000000     0.151000000000     0.082      
C        C      0.086100000000     0.529900000000     0.104400000000     0.082      
C        C      0.041500000000     0.504500000000     0.096500000000     0.082      
C        C      0.016800000000     0.485700000000     0.136400000000     0.082      
C        C      0.038500000000     0.489600000000     0.182000000000     0.082      
C        C      0.020300000000     0.500600000000     0.047400000000     0.082      
C        C      0.971400000000     0.514700000000     0.039000000000     0.082      
C        C      0.950600000000     0.515100000000     0.993200000000     0.082      
C        C      0.900400000000     0.536500000000     0.988000000000     0.082      
C        C      0.861700000000     0.520300000000     0.017100000000     0.082      
C        C      0.816400000000     0.544600000000     0.014800000000     0.082      
C        C      0.845000000000     0.598000000000     0.956800000000     0.082      
C        C      0.891700000000     0.576300000000     0.957100000000     0.082      
C        C      0.604300000000     0.033000000000     0.651000000000     0.082      
C        C      0.586100000000     0.029900000000     0.604400000000     0.082      
C        C      0.541500000000     0.004500000000     0.596500000000     0.082      
C        C      0.516800000000     0.985700000000     0.636400000000     0.082      
C        C      0.538500000000     0.989600000000     0.682000000000     0.082      
C        C      0.520300000000     0.000600000000     0.547400000000     0.082      
C        C      0.471400000000     0.014700000000     0.539000000000     0.082      
C        C      0.450600000000     0.015100000000     0.493200000000     0.082      
C        C      0.400400000000     0.036500000000     0.488000000000     0.082      
C        C      0.361700000000     0.020300000000     0.517100000000     0.082      
C        C      0.316400000000     0.044600000000     0.514800000000     0.082      
C        C      0.345000000000     0.098000000000     0.456800000000     0.082      
C        C      0.391700000000     0.076300000000     0.457100000000     0.082      
C        C      0.783000000000     0.145700000000     0.901000000000     0.082      
C        C      0.779900000000     0.163900000000     0.854400000000     0.082      
C        C      0.754500000000     0.208500000000     0.846500000000     0.082      
C        C      0.735700000000     0.233200000000     0.886400000000     0.082      
C        C      0.739600000000     0.211500000000     0.932000000000     0.082      
C        C      0.750600000000     0.229700000000     0.797400000000     0.082      
C        C      0.764700000000     0.278600000000     0.789000000000     0.082      
C        C      0.765100000000     0.299400000000     0.743200000000     0.082      
C        C      0.786500000000     0.349600000000     0.738000000000     0.082      
C        C      0.770300000000     0.388300000000     0.767100000000     0.082      
C        C      0.794600000000     0.433600000000     0.764800000000     0.082      
C        C      0.848000000000     0.405000000000     0.706800000000     0.082      
C        C      0.826300000000     0.358300000000     0.707100000000     0.082      
C        C      0.283000000000     0.645700000000     0.401000000000     0.082      
C        C      0.279900000000     0.663900000000     0.354400000000     0.082      
C        C      0.254500000000     0.708500000000     0.346500000000     0.082      
C        C      0.235700000000     0.733200000000     0.386400000000     0.082      
C        C      0.239600000000     0.711500000000     0.432000000000     0.082      
C        C      0.250600000000     0.729700000000     0.297400000000     0.082      
C        C      0.264700000000     0.778600000000     0.289000000000     0.082      
C        C      0.265100000000     0.799400000000     0.243200000000     0.082      
C        C      0.286500000000     0.849600000000     0.238000000000     0.082      
C        C      0.270300000000     0.888300000000     0.267100000000     0.082      
C        C      0.294600000000     0.933600000000     0.264800000000     0.082      
C        C      0.348000000000     0.905000000000     0.206800000000     0.082      
C        C      0.326300000000     0.858300000000     0.207100000000     0.082      
C        C      0.717000000000     0.854300000000     0.401000000000     0.082      
C        C      0.720100000000     0.836100000000     0.354400000000     0.082      
C        C      0.745500000000     0.791500000000     0.346500000000     0.082      
C        C      0.764300000000     0.766800000000     0.386400000000     0.082      
C        C      0.760400000000     0.788500000000     0.432000000000     0.082      
C        C      0.749400000000     0.770300000000     0.297400000000     0.082      
C        C      0.735300000000     0.721400000000     0.289000000000     0.082      
C        C      0.734900000000     0.700600000000     0.243200000000     0.082      
C        C      0.713500000000     0.650400000000     0.238000000000     0.082      
C        C      0.729700000000     0.611700000000     0.267100000000     0.082      
C        C      0.705400000000     0.566400000000     0.264800000000     0.082      
C        C      0.652000000000     0.595000000000     0.206800000000     0.082      
C        C      0.673700000000     0.641700000000     0.207100000000     0.082      
C        C      0.217000000000     0.354300000000     0.901000000000     0.082      
C        C      0.220100000000     0.336100000000     0.854400000000     0.082      
C        C      0.245500000000     0.291500000000     0.846500000000     0.082      
C        C      0.264300000000     0.266800000000     0.886400000000     0.082      
C        C      0.260400000000     0.288500000000     0.932000000000     0.082      
C        C      0.249400000000     0.270300000000     0.797400000000     0.082      
C        C      0.235300000000     0.221400000000     0.789000000000     0.082      
C        C      0.234900000000     0.200600000000     0.743200000000     0.082      
C        C      0.213500000000     0.150400000000     0.738000000000     0.082      
C        C      0.229700000000     0.111700000000     0.767100000000     0.082      
C        C      0.205400000000     0.066400000000     0.764800000000     0.082      
C        C      0.152000000000     0.095000000000     0.706800000000     0.082      
C        C      0.173700000000     0.141700000000     0.707100000000     0.082      
C        C      0.104300000000     0.467000000000     0.349000000000     0.082      
C        C      0.086100000000     0.470100000000     0.395600000000     0.082      
C        C      0.041500000000     0.495500000000     0.403500000000     0.082      
C        C      0.016800000000     0.514300000000     0.363600000000     0.082      
C        C      0.038500000000     0.510400000000     0.318000000000     0.082      
C        C      0.020300000000     0.499400000000     0.452600000000     0.082      
C        C      0.971400000000     0.485300000000     0.461000000000     0.082      
C        C      0.950600000000     0.484900000000     0.506800000000     0.082      
C        C      0.900400000000     0.463500000000     0.512000000000     0.082      
C        C      0.861700000000     0.479700000000     0.482900000000     0.082      
C        C      0.816400000000     0.455400000000     0.485200000000     0.082      
C        C      0.845000000000     0.402000000000     0.543200000000     0.082      
C        C      0.891700000000     0.423700000000     0.542900000000     0.082      
C        C      0.604300000000     0.967000000000     0.849000000000     0.082      
C        C      0.586100000000     0.970100000000     0.895600000000     0.082      
C        C      0.541500000000     0.995500000000     0.903500000000     0.082      
C        C      0.516800000000     0.014300000000     0.863600000000     0.082      
C        C      0.538500000000     0.010400000000     0.818000000000     0.082      
C        C      0.520300000000     0.999400000000     0.952600000000     0.082      
C        C      0.471400000000     0.985300000000     0.961000000000     0.082      
C        C      0.450600000000     0.984900000000     0.006800000000     0.082      
C        C      0.400400000000     0.963500000000     0.012000000000     0.082      
C        C      0.361700000000     0.979700000000     0.982900000000     0.082      
C        C      0.316400000000     0.955400000000     0.985200000000     0.082      
C        C      0.345000000000     0.902000000000     0.043200000000     0.082      
C        C      0.391700000000     0.923700000000     0.042900000000     0.082      
C        C      0.395700000000     0.533000000000     0.849000000000     0.082      
C        C      0.413900000000     0.529900000000     0.895600000000     0.082      
C        C      0.458500000000     0.504500000000     0.903500000000     0.082      
C        C      0.483200000000     0.485700000000     0.863600000000     0.082      
C        C      0.461500000000     0.489600000000     0.818000000000     0.082      
C        C      0.479700000000     0.500600000000     0.952600000000     0.082      
C        C      0.528600000000     0.514700000000     0.961000000000     0.082      
C        C      0.549400000000     0.515100000000     0.006800000000     0.082      
C        C      0.599600000000     0.536500000000     0.012000000000     0.082      
C        C      0.638300000000     0.520300000000     0.982900000000     0.082      
C        C      0.683600000000     0.544600000000     0.985200000000     0.082      
C        C      0.655000000000     0.598000000000     0.043200000000     0.082      
C        C      0.608300000000     0.576300000000     0.042900000000     0.082      
C        C      0.895700000000     0.033000000000     0.349000000000     0.082      
C        C      0.913900000000     0.029900000000     0.395600000000     0.082      
C        C      0.958500000000     0.004500000000     0.403500000000     0.082      
C        C      0.983200000000     0.985700000000     0.363600000000     0.082      
C        C      0.961500000000     0.989600000000     0.318000000000     0.082      
C        C      0.979700000000     0.000600000000     0.452600000000     0.082      
C        C      0.028600000000     0.014700000000     0.461000000000     0.082      
C        C      0.049400000000     0.015100000000     0.506800000000     0.082      
C        C      0.099600000000     0.036500000000     0.512000000000     0.082      
C        C      0.138300000000     0.020300000000     0.482900000000     0.082      
C        C      0.183600000000     0.044600000000     0.485200000000     0.082      
C        C      0.155000000000     0.098000000000     0.543200000000     0.082      
C        C      0.108300000000     0.076300000000     0.542900000000     0.082      
C        C      0.717000000000     0.145700000000     0.099000000000     0.082      
C        C      0.720100000000     0.163900000000     0.145600000000     0.082      
C        C      0.745500000000     0.208500000000     0.153500000000     0.082      
C        C      0.764300000000     0.233200000000     0.113600000000     0.082      
C        C      0.760400000000     0.211500000000     0.068000000000     0.082      
C        C      0.749400000000     0.229700000000     0.202600000000     0.082      
C        C      0.735300000000     0.278600000000     0.211000000000     0.082      
C        C      0.734900000000     0.299400000000     0.256800000000     0.082      
C        C      0.713500000000     0.349600000000     0.262000000000     0.082      
C        C      0.729700000000     0.388300000000     0.232900000000     0.082      
C        C      0.705400000000     0.433600000000     0.235200000000     0.082      
C        C      0.652000000000     0.405000000000     0.293200000000     0.082      
C        C      0.673700000000     0.358300000000     0.292900000000     0.082      
C        C      0.217000000000     0.645700000000     0.599000000000     0.082      
C        C      0.220100000000     0.663900000000     0.645600000000     0.082      
C        C      0.245500000000     0.708500000000     0.653500000000     0.082      
C        C      0.264300000000     0.733200000000     0.613600000000     0.082      
C        C      0.260400000000     0.711500000000     0.568000000000     0.082      
C        C      0.249400000000     0.729700000000     0.702600000000     0.082      
C        C      0.235300000000     0.778600000000     0.711000000000     0.082      
C        C      0.234900000000     0.799400000000     0.756800000000     0.082      
C        C      0.213500000000     0.849600000000     0.762000000000     0.082      
C        C      0.229700000000     0.888300000000     0.732900000000     0.082      
C        C      0.205400000000     0.933600000000     0.735200000000     0.082      
C        C      0.152000000000     0.905000000000     0.793200000000     0.082      
C        C      0.173700000000     0.858300000000     0.792900000000     0.082      
C        C      0.783000000000     0.854300000000     0.599000000000     0.082      
C        C      0.779900000000     0.836100000000     0.645600000000     0.082      
C        C      0.754500000000     0.791500000000     0.653500000000     0.082      
C        C      0.735700000000     0.766800000000     0.613600000000     0.082      
C        C      0.739600000000     0.788500000000     0.568000000000     0.082      
C        C      0.750600000000     0.770300000000     0.702600000000     0.082      
C        C      0.764700000000     0.721400000000     0.711000000000     0.082      
C        C      0.765100000000     0.700600000000     0.756800000000     0.082      
C        C      0.786500000000     0.650400000000     0.762000000000     0.082      
C        C      0.770300000000     0.611700000000     0.732900000000     0.082      
C        C      0.794600000000     0.566400000000     0.735200000000     0.082      
C        C      0.848000000000     0.595000000000     0.793200000000     0.082      
C        C      0.826300000000     0.641700000000     0.792900000000     0.082      
C        C      0.283000000000     0.354300000000     0.099000000000     0.082      
C        C      0.279900000000     0.336100000000     0.145600000000     0.082      
C        C      0.254500000000     0.291500000000     0.153500000000     0.082      
C        C      0.235700000000     0.266800000000     0.113600000000     0.082      
C        C      0.239600000000     0.288500000000     0.068000000000     0.082      
C        C      0.250600000000     0.270300000000     0.202600000000     0.082      
C        C      0.264700000000     0.221400000000     0.211000000000     0.082      
C        C      0.265100000000     0.200600000000     0.256800000000     0.082      
C        C      0.286500000000     0.150400000000     0.262000000000     0.082      
C        C      0.270300000000     0.111700000000     0.232900000000     0.082      
C        C      0.294600000000     0.066400000000     0.235200000000     0.082      
C        C      0.348000000000     0.095000000000     0.293200000000     0.082      
C        C      0.326300000000     0.141700000000     0.292900000000     0.082      
C        C      0.604300000000     0.533000000000     0.349000000000     0.082      
C        C      0.586100000000     0.529900000000     0.395600000000     0.082      
C        C      0.541500000000     0.504500000000     0.403500000000     0.082      
C        C      0.516800000000     0.485700000000     0.363600000000     0.082      
C        C      0.538500000000     0.489600000000     0.318000000000     0.082      
C        C      0.520300000000     0.500600000000     0.452600000000     0.082      
C        C      0.471400000000     0.514700000000     0.461000000000     0.082      
C        C      0.450600000000     0.515100000000     0.506800000000     0.082      
C        C      0.400400000000     0.536500000000     0.512000000000     0.082      
C        C      0.361700000000     0.520300000000     0.482900000000     0.082      
C        C      0.316400000000     0.544600000000     0.485200000000     0.082      
C        C      0.345000000000     0.598000000000     0.543200000000     0.082      
C        C      0.391700000000     0.576300000000     0.542900000000     0.082      
C        C      0.104300000000     0.033000000000     0.849000000000     0.082      
C        C      0.086100000000     0.029900000000     0.895600000000     0.082      
C        C      0.041500000000     0.004500000000     0.903500000000     0.082      
C        C      0.016800000000     0.985700000000     0.863600000000     0.082      
C        C      0.038500000000     0.989600000000     0.818000000000     0.082      
C        C      0.020300000000     0.000600000000     0.952600000000     0.082      
C        C      0.971400000000     0.014700000000     0.961000000000     0.082      
C        C      0.950600000000     0.015100000000     0.006800000000     0.082      
C        C      0.900400000000     0.036500000000     0.012000000000     0.082      
C        C      0.861700000000     0.020300000000     0.982900000000     0.082      
C        C      0.816400000000     0.044600000000     0.985200000000     0.082      
C        C      0.845000000000     0.098000000000     0.043200000000     0.082      
C        C      0.891700000000     0.076300000000     0.042900000000     0.082      
C        C      0.895700000000     0.467000000000     0.849000000000     0.082      
C        C      0.913900000000     0.470100000000     0.895600000000     0.082      
C        C      0.958500000000     0.495500000000     0.903500000000     0.082      
C        C      0.983200000000     0.514300000000     0.863600000000     0.082      
C        C      0.961500000000     0.510400000000     0.818000000000     0.082      
C        C      0.979700000000     0.499400000000     0.952600000000     0.082      
C        C      0.028600000000     0.485300000000     0.961000000000     0.082      
C        C      0.049400000000     0.484900000000     0.006800000000     0.082      
C        C      0.099600000000     0.463500000000     0.012000000000     0.082      
C        C      0.138300000000     0.479700000000     0.982900000000     0.082      
C        C      0.183600000000     0.455400000000     0.985200000000     0.082      
C        C      0.155000000000     0.402000000000     0.043200000000     0.082      
C        C      0.108300000000     0.423700000000     0.042900000000     0.082      
C        C      0.395700000000     0.967000000000     0.349000000000     0.082      
C        C      0.413900000000     0.970100000000     0.395600000000     0.082      
C        C      0.458500000000     0.995500000000     0.403500000000     0.082      
C        C      0.483200000000     0.014300000000     0.363600000000     0.082      
C        C      0.461500000000     0.010400000000     0.318000000000     0.082      
C        C      0.479700000000     0.999400000000     0.452600000000     0.082      
C        C      0.528600000000     0.985300000000     0.461000000000     0.082      
C        C      0.549400000000     0.984900000000     0.506800000000     0.082      
C        C      0.599600000000     0.963500000000     0.512000000000     0.082      
C        C      0.638300000000     0.979700000000     0.482900000000     0.082      
C        C      0.683600000000     0.955400000000     0.485200000000     0.082      
C        C      0.655000000000     0.902000000000     0.543200000000     0.082      
C        C      0.608300000000     0.923700000000     0.542900000000     0.082      
C        C      0.217000000000     0.854300000000     0.099000000000     0.082      
C        C      0.220100000000     0.836100000000     0.145600000000     0.082      
C        C      0.245500000000     0.791500000000     0.153500000000     0.082      
C        C      0.264300000000     0.766800000000     0.113600000000     0.082      
C        C      0.260400000000     0.788500000000     0.068000000000     0.082      
C        C      0.249400000000     0.770300000000     0.202600000000     0.082      
C        C      0.235300000000     0.721400000000     0.211000000000     0.082      
C        C      0.234900000000     0.700600000000     0.256800000000     0.082      
C        C      0.213500000000     0.650400000000     0.262000000000     0.082      
C        C      0.229700000000     0.611700000000     0.232900000000     0.082      
C        C      0.205400000000     0.566400000000     0.235200000000     0.082      
C        C      0.152000000000     0.595000000000     0.293200000000     0.082      
C        C      0.173700000000     0.641700000000     0.292900000000     0.082      
C        C      0.717000000000     0.354300000000     0.599000000000     0.082      
C        C      0.720100000000     0.336100000000     0.645600000000     0.082      
C        C      0.745500000000     0.291500000000     0.653500000000     0.082      
C        C      0.764300000000     0.266800000000     0.613600000000     0.082      
C        C      0.760400000000     0.288500000000     0.568000000000     0.082      
C        C      0.749400000000     0.270300000000     0.702600000000     0.082      
C        C      0.735300000000     0.221400000000     0.711000000000     0.082      
C        C      0.734900000000     0.200600000000     0.756800000000     0.082      
C        C      0.713500000000     0.150400000000     0.762000000000     0.082      
C        C      0.729700000000     0.111700000000     0.732900000000     0.082      
C        C      0.705400000000     0.066400000000     0.735200000000     0.082      
C        C      0.652000000000     0.095000000000     0.793200000000     0.082      
C        C      0.673700000000     0.141700000000     0.792900000000     0.082      
C        C      0.283000000000     0.145700000000     0.599000000000     0.082      
C        C      0.279900000000     0.163900000000     0.645600000000     0.082      
C        C      0.254500000000     0.208500000000     0.653500000000     0.082      
C        C      0.235700000000     0.233200000000     0.613600000000     0.082      
C        C      0.239600000000     0.211500000000     0.568000000000     0.082      
C        C      0.250600000000     0.229700000000     0.702600000000     0.082      
C        C      0.264700000000     0.278600000000     0.711000000000     0.082      
C        C      0.265100000000     0.299400000000     0.756800000000     0.082      
C        C      0.286500000000     0.349600000000     0.762000000000     0.082      
C        C      0.270300000000     0.388300000000     0.732900000000     0.082      
C        C      0.294600000000     0.433600000000     0.735200000000     0.082      
C        C      0.348000000000     0.405000000000     0.793200000000     0.082      
C        C      0.326300000000     0.358300000000     0.792900000000     0.082      
C        C      0.783000000000     0.645700000000     0.099000000000     0.082      
C        C      0.779900000000     0.663900000000     0.145600000000     0.082      
C        C      0.754500000000     0.708500000000     0.153500000000     0.082      
C        C      0.735700000000     0.733200000000     0.113600000000     0.082      
C        C      0.739600000000     0.711500000000     0.068000000000     0.082      
C        C      0.750600000000     0.729700000000     0.202600000000     0.082      
C        C      0.764700000000     0.778600000000     0.211000000000     0.082      
C        C      0.765100000000     0.799400000000     0.256800000000     0.082      
C        C      0.786500000000     0.849600000000     0.262000000000     0.082      
C        C      0.770300000000     0.888300000000     0.232900000000     0.082      
C        C      0.794600000000     0.933600000000     0.235200000000     0.082      
C        C      0.848000000000     0.905000000000     0.293200000000     0.082      
C        C      0.826300000000     0.858300000000     0.292900000000     0.082      
C        C      0.895700000000     0.533000000000     0.651000000000     0.082      
C        C      0.913900000000     0.529900000000     0.604400000000     0.082      
C        C      0.958500000000     0.504500000000     0.596500000000     0.082      
C        C      0.983200000000     0.485700000000     0.636400000000     0.082      
C        C      0.961500000000     0.489600000000     0.682000000000     0.082      
C        C      0.979700000000     0.500600000000     0.547400000000     0.082      
C        C      0.028600000000     0.514700000000     0.539000000000     0.082      
C        C      0.049400000000     0.515100000000     0.493200000000     0.082      
C        C      0.099600000000     0.536500000000     0.488000000000     0.082      
C        C      0.138300000000     0.520300000000     0.517100000000     0.082      
C        C      0.183600000000     0.544600000000     0.514800000000     0.082      
C        C      0.155000000000     0.598000000000     0.456800000000     0.082      
C        C      0.108300000000     0.576300000000     0.457100000000     0.082      
C        C      0.395700000000     0.033000000000     0.151000000000     0.082      
C        C      0.413900000000     0.029900000000     0.104400000000     0.082      
C        C      0.458500000000     0.004500000000     0.096500000000     0.082      
C        C      0.483200000000     0.985700000000     0.136400000000     0.082      
C        C      0.461500000000     0.989600000000     0.182000000000     0.082      
C        C      0.479700000000     0.000600000000     0.047400000000     0.082      
C        C      0.528600000000     0.014700000000     0.039000000000     0.082      
C        C      0.549400000000     0.015100000000     0.993200000000     0.082      
C        C      0.599600000000     0.036500000000     0.988000000000     0.082      
C        C      0.638300000000     0.020300000000     0.017100000000     0.082      
C        C      0.683600000000     0.044600000000     0.014800000000     0.082      
C        C      0.655000000000     0.098000000000     0.956800000000     0.082      
C        C      0.608300000000     0.076300000000     0.957100000000     0.082      
C        C      0.604300000000     0.467000000000     0.151000000000     0.082      
C        C      0.586100000000     0.470100000000     0.104400000000     0.082      
C        C      0.541500000000     0.495500000000     0.096500000000     0.082      
C        C      0.516800000000     0.514300000000     0.136400000000     0.082      
C        C      0.538500000000     0.510400000000     0.182000000000     0.082      
C        C      0.520300000000     0.499400000000     0.047400000000     0.082      
C        C      0.471400000000     0.485300000000     0.039000000000     0.082      
C        C      0.450600000000     0.484900000000     0.993200000000     0.082      
C        C      0.400400000000     0.463500000000     0.988000000000     0.082      
C        C      0.361700000000     0.479700000000     0.017100000000     0.082      
C        C      0.316400000000     0.455400000000     0.014800000000     0.082      
C        C      0.345000000000     0.402000000000     0.956800000000     0.082      
C        C      0.391700000000     0.423700000000     0.957100000000     0.082      
C        C      0.104300000000     0.967000000000     0.651000000000     0.082      
C        C      0.086100000000     0.970100000000     0.604400000000     0.082      
C        C      0.041500000000     0.995500000000     0.596500000000     0.082      
C        C      0.016800000000     0.014300000000     0.636400000000     0.082      
C        C      0.038500000000     0.010400000000     0.682000000000     0.082      
C        C      0.020300000000     0.999400000000     0.547400000000     0.082      
C        C      0.971400000000     0.985300000000     0.539000000000     0.082      
C        C      0.950600000000     0.984900000000     0.493200000000     0.082      
C        C      0.900400000000     0.963500000000     0.488000000000     0.082      
C        C      0.861700000000     0.979700000000     0.517100000000     0.082      
C        C      0.816400000000     0.955400000000     0.514800000000     0.082      
C        C      0.845000000000     0.902000000000     0.456800000000     0.082      
C        C      0.891700000000     0.923700000000     0.457100000000     0.082      
C        C      0.283000000000     0.854300000000     0.901000000000     0.082      
C        C      0.279900000000     0.836100000000     0.854400000000     0.082      
C        C      0.254500000000     0.791500000000     0.846500000000     0.082      
C        C      0.235700000000     0.766800000000     0.886400000000     0.082      
C        C      0.239600000000     0.788500000000     0.932000000000     0.082      
C        C      0.250600000000     0.770300000000     0.797400000000     0.082      
C        C      0.264700000000     0.721400000000     0.789000000000     0.082      
C        C      0.265100000000     0.700600000000     0.743200000000     0.082      
C        C      0.286500000000     0.650400000000     0.738000000000     0.082      
C        C      0.270300000000     0.611700000000     0.767100000000     0.082      
C        C      0.294600000000     0.566400000000     0.764800000000     0.082      
C        C      0.348000000000     0.595000000000     0.706800000000     0.082      
C        C      0.326300000000     0.641700000000     0.707100000000     0.082      
C        C      0.783000000000     0.354300000000     0.401000000000     0.082      
C        C      0.779900000000     0.336100000000     0.354400000000     0.082      
C        C      0.754500000000     0.291500000000     0.346500000000     0.082      
C        C      0.735700000000     0.266800000000     0.386400000000     0.082      
C        C      0.739600000000     0.288500000000     0.432000000000     0.082      
C        C      0.750600000000     0.270300000000     0.297400000000     0.082      
C        C      0.764700000000     0.221400000000     0.289000000000     0.082      
C        C      0.765100000000     0.200600000000     0.243200000000     0.082      
C        C      0.786500000000     0.150400000000     0.238000000000     0.082      
C        C      0.770300000000     0.111700000000     0.267100000000     0.082      
C        C      0.794600000000     0.066400000000     0.264800000000     0.082      
C        C      0.848000000000     0.095000000000     0.206800000000     0.082      
C        C      0.826300000000     0.141700000000     0.207100000000     0.082      
C        C      0.217000000000     0.145700000000     0.401000000000     0.082      
C        C      0.220100000000     0.163900000000     0.354400000000     0.082      
C        C      0.245500000000     0.208500000000     0.346500000000     0.082      
C        C      0.264300000000     0.233200000000     0.386400000000     0.082      
C        C      0.260400000000     0.211500000000     0.432000000000     0.082      
C        C      0.249400000000     0.229700000000     0.297400000000     0.082      
C        C      0.235300000000     0.278600000000     0.289000000000     0.082      
C        C      0.234900000000     0.299400000000     0.243200000000     0.082      
C        C      0.213500000000     0.349600000000     0.238000000000     0.082      
C        C      0.229700000000     0.388300000000     0.267100000000     0.082      
C        C      0.205400000000     0.433600000000     0.264800000000     0.082      
C        C      0.152000000000     0.405000000000     0.206800000000     0.082      
C        C      0.173700000000     0.358300000000     0.207100000000     0.082      
C        C      0.717000000000     0.645700000000     0.901000000000     0.082      
C        C      0.720100000000     0.663900000000     0.854400000000     0.082      
C        C      0.745500000000     0.708500000000     0.846500000000     0.082      
C        C      0.764300000000     0.733200000000     0.886400000000     0.082      
C        C      0.760400000000     0.711500000000     0.932000000000     0.082      
C        C      0.749400000000     0.729700000000     0.797400000000     0.082      
C        C      0.735300000000     0.778600000000     0.789000000000     0.082      
C        C      0.734900000000     0.799400000000     0.743200000000     0.082      
C        C      0.713500000000     0.849600000000     0.738000000000     0.082      
C        C      0.729700000000     0.888300000000     0.767100000000     0.082      
C        C      0.705400000000     0.933600000000     0.764800000000     0.082      
C        C      0.652000000000     0.905000000000     0.706800000000     0.082      
C        C      0.673700000000     0.858300000000     0.707100000000     0.082      
H        H      0.366300000000     0.449700000000     0.656200000000     0.086      
H        H      0.396900000000     0.455600000000     0.578600000000     0.086      
H        H      0.514000000000     0.529400000000     0.632800000000     0.086      
H        H      0.477900000000     0.524300000000     0.708400000000     0.086      
H        H      0.548000000000     0.475800000000     0.565300000000     0.086      
H        H      0.634000000000     0.506600000000     0.537800000000     0.086      
H        H      0.709400000000     0.466600000000     0.534500000000     0.086      
H        H      0.660800000000     0.375900000000     0.435400000000     0.086      
H        H      0.583300000000     0.411800000000     0.437000000000     0.086      
H        H      0.866300000000     0.949700000000     0.156200000000     0.086      
H        H      0.896900000000     0.955600000000     0.078600000000     0.086      
H        H      0.014000000000     0.029400000000     0.132800000000     0.086      
H        H      0.977900000000     0.024300000000     0.208400000000     0.086      
H        H      0.048000000000     0.975800000000     0.065300000000     0.086      
H        H      0.134000000000     0.006600000000     0.037800000000     0.086      
H        H      0.209400000000     0.966600000000     0.034500000000     0.086      
H        H      0.160800000000     0.875900000000     0.935400000000     0.086      
H        H      0.083300000000     0.911800000000     0.937000000000     0.086      
H        H      0.133700000000     0.550300000000     0.156200000000     0.086      
H        H      0.103100000000     0.544400000000     0.078600000000     0.086      
H        H      0.986000000000     0.470600000000     0.132800000000     0.086      
H        H      0.022100000000     0.475700000000     0.208400000000     0.086      
H        H      0.952000000000     0.524200000000     0.065300000000     0.086      
H        H      0.866000000000     0.493400000000     0.037800000000     0.086      
H        H      0.790600000000     0.533400000000     0.034500000000     0.086      
H        H      0.839200000000     0.624100000000     0.935400000000     0.086      
H        H      0.916700000000     0.588200000000     0.937000000000     0.086      
H        H      0.633700000000     0.050300000000     0.656200000000     0.086      
H        H      0.603100000000     0.044400000000     0.578600000000     0.086      
H        H      0.486000000000     0.970600000000     0.632800000000     0.086      
H        H      0.522100000000     0.975700000000     0.708400000000     0.086      
H        H      0.452000000000     0.024200000000     0.565300000000     0.086      
H        H      0.366000000000     0.993400000000     0.537800000000     0.086      
H        H      0.290600000000     0.033400000000     0.534500000000     0.086      
H        H      0.339200000000     0.124100000000     0.435400000000     0.086      
H        H      0.416700000000     0.088200000000     0.437000000000     0.086      
H        H      0.800300000000     0.116300000000     0.906200000000     0.086      
H        H      0.794400000000     0.146900000000     0.828600000000     0.086      
H        H      0.720600000000     0.264000000000     0.882800000000     0.086      
H        H      0.725700000000     0.227900000000     0.958400000000     0.086      
H        H      0.774200000000     0.298000000000     0.815300000000     0.086      
H        H      0.743400000000     0.384000000000     0.787800000000     0.086      
H        H      0.783400000000     0.459400000000     0.784500000000     0.086      
H        H      0.874100000000     0.410800000000     0.685400000000     0.086      
H        H      0.838200000000     0.333300000000     0.687000000000     0.086      
H        H      0.300300000000     0.616300000000     0.406200000000     0.086      
H        H      0.294400000000     0.646900000000     0.328600000000     0.086      
H        H      0.220600000000     0.764000000000     0.382800000000     0.086      
H        H      0.225700000000     0.727900000000     0.458400000000     0.086      
H        H      0.274200000000     0.798000000000     0.315300000000     0.086      
H        H      0.243400000000     0.884000000000     0.287800000000     0.086      
H        H      0.283400000000     0.959400000000     0.284500000000     0.086      
H        H      0.374100000000     0.910800000000     0.185400000000     0.086      
H        H      0.338200000000     0.833300000000     0.187000000000     0.086      
H        H      0.699700000000     0.883700000000     0.406200000000     0.086      
H        H      0.705600000000     0.853100000000     0.328600000000     0.086      
H        H      0.779400000000     0.736000000000     0.382800000000     0.086      
H        H      0.774300000000     0.772100000000     0.458400000000     0.086      
H        H      0.725800000000     0.702000000000     0.315300000000     0.086      
H        H      0.756600000000     0.616000000000     0.287800000000     0.086      
H        H      0.716600000000     0.540600000000     0.284500000000     0.086      
H        H      0.625900000000     0.589200000000     0.185400000000     0.086      
H        H      0.661800000000     0.666700000000     0.187000000000     0.086      
H        H      0.199700000000     0.383700000000     0.906200000000     0.086      
H        H      0.205600000000     0.353100000000     0.828600000000     0.086      
H        H      0.279400000000     0.236000000000     0.882800000000     0.086      
H        H      0.274300000000     0.272100000000     0.958400000000     0.086      
H        H      0.225800000000     0.202000000000     0.815300000000     0.086      
H        H      0.256600000000     0.116000000000     0.787800000000     0.086      
H        H      0.216600000000     0.040600000000     0.784500000000     0.086      
H        H      0.125900000000     0.089200000000     0.685400000000     0.086      
H        H      0.161800000000     0.166700000000     0.687000000000     0.086      
H        H      0.133700000000     0.449700000000     0.343800000000     0.086      
H        H      0.103100000000     0.455600000000     0.421400000000     0.086      
H        H      0.986000000000     0.529400000000     0.367200000000     0.086      
H        H      0.022100000000     0.524300000000     0.291600000000     0.086      
H        H      0.952000000000     0.475800000000     0.434700000000     0.086      
H        H      0.866000000000     0.506600000000     0.462200000000     0.086      
H        H      0.790600000000     0.466600000000     0.465500000000     0.086      
H        H      0.839200000000     0.375900000000     0.564600000000     0.086      
H        H      0.916700000000     0.411800000000     0.563000000000     0.086      
H        H      0.633700000000     0.949700000000     0.843800000000     0.086      
H        H      0.603100000000     0.955600000000     0.921400000000     0.086      
H        H      0.486000000000     0.029400000000     0.867200000000     0.086      
H        H      0.522100000000     0.024300000000     0.791600000000     0.086      
H        H      0.452000000000     0.975800000000     0.934700000000     0.086      
H        H      0.366000000000     0.006600000000     0.962200000000     0.086      
H        H      0.290600000000     0.966600000000     0.965500000000     0.086      
H        H      0.339200000000     0.875900000000     0.064600000000     0.086      
H        H      0.416700000000     0.911800000000     0.063000000000     0.086      
H        H      0.366300000000     0.550300000000     0.843800000000     0.086      
H        H      0.396900000000     0.544400000000     0.921400000000     0.086      
H        H      0.514000000000     0.470600000000     0.867200000000     0.086      
H        H      0.477900000000     0.475700000000     0.791600000000     0.086      
H        H      0.548000000000     0.524200000000     0.934700000000     0.086      
H        H      0.634000000000     0.493400000000     0.962200000000     0.086      
H        H      0.709400000000     0.533400000000     0.965500000000     0.086      
H        H      0.660800000000     0.624100000000     0.064600000000     0.086      
H        H      0.583300000000     0.588200000000     0.063000000000     0.086      
H        H      0.866300000000     0.050300000000     0.343800000000     0.086      
H        H      0.896900000000     0.044400000000     0.421400000000     0.086      
H        H      0.014000000000     0.970600000000     0.367200000000     0.086      
H        H      0.977900000000     0.975700000000     0.291600000000     0.086      
H        H      0.048000000000     0.024200000000     0.434700000000     0.086      
H        H      0.134000000000     0.993400000000     0.462200000000     0.086      
H        H      0.209400000000     0.033400000000     0.465500000000     0.086      
H        H      0.160800000000     0.124100000000     0.564600000000     0.086      
H        H      0.083300000000     0.088200000000     0.563000000000     0.086      
H        H      0.699700000000     0.116300000000     0.093800000000     0.086      
H        H      0.705600000000     0.146900000000     0.171400000000     0.086      
H        H      0.779400000000     0.264000000000     0.117200000000     0.086      
H        H      0.774300000000     0.227900000000     0.041600000000     0.086      
H        H      0.725800000000     0.298000000000     0.184700000000     0.086      
H        H      0.756600000000     0.384000000000     0.212200000000     0.086      
H        H      0.716600000000     0.459400000000     0.215500000000     0.086      
H        H      0.625900000000     0.410800000000     0.314600000000     0.086      
H        H      0.661800000000     0.333300000000     0.313000000000     0.086      
H        H      0.199700000000     0.616300000000     0.593800000000     0.086      
H        H      0.205600000000     0.646900000000     0.671400000000     0.086      
H        H      0.279400000000     0.764000000000     0.617200000000     0.086      
H        H      0.274300000000     0.727900000000     0.541600000000     0.086      
H        H      0.225800000000     0.798000000000     0.684700000000     0.086      
H        H      0.256600000000     0.884000000000     0.712200000000     0.086      
H        H      0.216600000000     0.959400000000     0.715500000000     0.086      
H        H      0.125900000000     0.910800000000     0.814600000000     0.086      
H        H      0.161800000000     0.833300000000     0.813000000000     0.086      
H        H      0.800300000000     0.883700000000     0.593800000000     0.086      
H        H      0.794400000000     0.853100000000     0.671400000000     0.086      
H        H      0.720600000000     0.736000000000     0.617200000000     0.086      
H        H      0.725700000000     0.772100000000     0.541600000000     0.086      
H        H      0.774200000000     0.702000000000     0.684700000000     0.086      
H        H      0.743400000000     0.616000000000     0.712200000000     0.086      
H        H      0.783400000000     0.540600000000     0.715500000000     0.086      
H        H      0.874100000000     0.589200000000     0.814600000000     0.086      
H        H      0.838200000000     0.666700000000     0.813000000000     0.086      
H        H      0.300300000000     0.383700000000     0.093800000000     0.086      
H        H      0.294400000000     0.353100000000     0.171400000000     0.086      
H        H      0.220600000000     0.236000000000     0.117200000000     0.086      
H        H      0.225700000000     0.272100000000     0.041600000000     0.086      
H        H      0.274200000000     0.202000000000     0.184700000000     0.086      
H        H      0.243400000000     0.116000000000     0.212200000000     0.086      
H        H      0.283400000000     0.040600000000     0.215500000000     0.086      
H        H      0.374100000000     0.089200000000     0.314600000000     0.086      
H        H      0.338200000000     0.166700000000     0.313000000000     0.086      
H        H      0.633700000000     0.550300000000     0.343800000000     0.086      
H        H      0.603100000000     0.544400000000     0.421400000000     0.086      
H        H      0.486000000000     0.470600000000     0.367200000000     0.086      
H        H      0.522100000000     0.475700000000     0.291600000000     0.086      
H        H      0.452000000000     0.524200000000     0.434700000000     0.086      
H        H      0.366000000000     0.493400000000     0.462200000000     0.086      
H        H      0.290600000000     0.533400000000     0.465500000000     0.086      
H        H      0.339200000000     0.624100000000     0.564600000000     0.086      
H        H      0.416700000000     0.588200000000     0.563000000000     0.086      
H        H      0.133700000000     0.050300000000     0.843800000000     0.086      
H        H      0.103100000000     0.044400000000     0.921400000000     0.086      
H        H      0.986000000000     0.970600000000     0.867200000000     0.086      
H        H      0.022100000000     0.975700000000     0.791600000000     0.086      
H        H      0.952000000000     0.024200000000     0.934700000000     0.086      
H        H      0.866000000000     0.993400000000     0.962200000000     0.086      
H        H      0.790600000000     0.033400000000     0.965500000000     0.086      
H        H      0.839200000000     0.124100000000     0.064600000000     0.086      
H        H      0.916700000000     0.088200000000     0.063000000000     0.086      
H        H      0.866300000000     0.449700000000     0.843800000000     0.086      
H        H      0.896900000000     0.455600000000     0.921400000000     0.086      
H        H      0.014000000000     0.529400000000     0.867200000000     0.086      
H        H      0.977900000000     0.524300000000     0.791600000000     0.086      
H        H      0.048000000000     0.475800000000     0.934700000000     0.086      
H        H      0.134000000000     0.506600000000     0.962200000000     0.086      
H        H      0.209400000000     0.466600000000     0.965500000000     0.086      
H        H      0.160800000000     0.375900000000     0.064600000000     0.086      
H        H      0.083300000000     0.411800000000     0.063000000000     0.086      
H        H      0.366300000000     0.949700000000     0.343800000000     0.086      
H        H      0.396900000000     0.955600000000     0.421400000000     0.086      
H        H      0.514000000000     0.029400000000     0.367200000000     0.086      
H        H      0.477900000000     0.024300000000     0.291600000000     0.086      
H        H      0.548000000000     0.975800000000     0.434700000000     0.086      
H        H      0.634000000000     0.006600000000     0.462200000000     0.086      
H        H      0.709400000000     0.966600000000     0.465500000000     0.086      
H        H      0.660800000000     0.875900000000     0.564600000000     0.086      
H        H      0.583300000000     0.911800000000     0.563000000000     0.086      
H        H      0.199700000000     0.883700000000     0.093800000000     0.086      
H        H      0.205600000000     0.853100000000     0.171400000000     0.086      
H        H      0.279400000000     0.736000000000     0.117200000000     0.086      
H        H      0.274300000000     0.772100000000     0.041600000000     0.086      
H        H      0.225800000000     0.702000000000     0.184700000000     0.086      
H        H      0.256600000000     0.616000000000     0.212200000000     0.086      
H        H      0.216600000000     0.540600000000     0.215500000000     0.086      
H        H      0.125900000000     0.589200000000     0.314600000000     0.086      
H        H      0.161800000000     0.666700000000     0.313000000000     0.086      
H        H      0.699700000000     0.383700000000     0.593800000000     0.086      
H        H      0.705600000000     0.353100000000     0.671400000000     0.086      
H        H      0.779400000000     0.236000000000     0.617200000000     0.086      
H        H      0.774300000000     0.272100000000     0.541600000000     0.086      
H        H      0.725800000000     0.202000000000     0.684700000000     0.086      
H        H      0.756600000000     0.116000000000     0.712200000000     0.086      
H        H      0.716600000000     0.040600000000     0.715500000000     0.086      
H        H      0.625900000000     0.089200000000     0.814600000000     0.086      
H        H      0.661800000000     0.166700000000     0.813000000000     0.086      
H        H      0.300300000000     0.116300000000     0.593800000000     0.086      
H        H      0.294400000000     0.146900000000     0.671400000000     0.086      
H        H      0.220600000000     0.264000000000     0.617200000000     0.086      
H        H      0.225700000000     0.227900000000     0.541600000000     0.086      
H        H      0.274200000000     0.298000000000     0.684700000000     0.086      
H        H      0.243400000000     0.384000000000     0.712200000000     0.086      
H        H      0.283400000000     0.459400000000     0.715500000000     0.086      
H        H      0.374100000000     0.410800000000     0.814600000000     0.086      
H        H      0.338200000000     0.333300000000     0.813000000000     0.086      
H        H      0.800300000000     0.616300000000     0.093800000000     0.086      
H        H      0.794400000000     0.646900000000     0.171400000000     0.086      
H        H      0.720600000000     0.764000000000     0.117200000000     0.086      
H        H      0.725700000000     0.727900000000     0.041600000000     0.086      
H        H      0.774200000000     0.798000000000     0.184700000000     0.086      
H        H      0.743400000000     0.884000000000     0.212200000000     0.086      
H        H      0.783400000000     0.959400000000     0.215500000000     0.086      
H        H      0.874100000000     0.910800000000     0.314600000000     0.086      
H        H      0.838200000000     0.833300000000     0.313000000000     0.086      
H        H      0.866300000000     0.550300000000     0.656200000000     0.086      
H        H      0.896900000000     0.544400000000     0.578600000000     0.086      
H        H      0.014000000000     0.470600000000     0.632800000000     0.086      
H        H      0.977900000000     0.475700000000     0.708400000000     0.086      
H        H      0.048000000000     0.524200000000     0.565300000000     0.086      
H        H      0.134000000000     0.493400000000     0.537800000000     0.086      
H        H      0.209400000000     0.533400000000     0.534500000000     0.086      
H        H      0.160800000000     0.624100000000     0.435400000000     0.086      
H        H      0.083300000000     0.588200000000     0.437000000000     0.086      
H        H      0.366300000000     0.050300000000     0.156200000000     0.086      
H        H      0.396900000000     0.044400000000     0.078600000000     0.086      
H        H      0.514000000000     0.970600000000     0.132800000000     0.086      
H        H      0.477900000000     0.975700000000     0.208400000000     0.086      
H        H      0.548000000000     0.024200000000     0.065300000000     0.086      
H        H      0.634000000000     0.993400000000     0.037800000000     0.086      
H        H      0.709400000000     0.033400000000     0.034500000000     0.086      
H        H      0.660800000000     0.124100000000     0.935400000000     0.086      
H        H      0.583300000000     0.088200000000     0.937000000000     0.086      
H        H      0.633700000000     0.449700000000     0.156200000000     0.086      
H        H      0.603100000000     0.455600000000     0.078600000000     0.086      
H        H      0.486000000000     0.529400000000     0.132800000000     0.086      
H        H      0.522100000000     0.524300000000     0.208400000000     0.086      
H        H      0.452000000000     0.475800000000     0.065300000000     0.086      
H        H      0.366000000000     0.506600000000     0.037800000000     0.086      
H        H      0.290600000000     0.466600000000     0.034500000000     0.086      
H        H      0.339200000000     0.375900000000     0.935400000000     0.086      
H        H      0.416700000000     0.411800000000     0.937000000000     0.086      
H        H      0.133700000000     0.949700000000     0.656200000000     0.086      
H        H      0.103100000000     0.955600000000     0.578600000000     0.086      
H        H      0.986000000000     0.029400000000     0.632800000000     0.086      
H        H      0.022100000000     0.024300000000     0.708400000000     0.086      
H        H      0.952000000000     0.975800000000     0.565300000000     0.086      
H        H      0.866000000000     0.006600000000     0.537800000000     0.086      
H        H      0.790600000000     0.966600000000     0.534500000000     0.086      
H        H      0.839200000000     0.875900000000     0.435400000000     0.086      
H        H      0.916700000000     0.911800000000     0.437000000000     0.086      
H        H      0.300300000000     0.883700000000     0.906200000000     0.086      
H        H      0.294400000000     0.853100000000     0.828600000000     0.086      
H        H      0.220600000000     0.736000000000     0.882800000000     0.086      
H        H      0.225700000000     0.772100000000     0.958400000000     0.086      
H        H      0.274200000000     0.702000000000     0.815300000000     0.086      
H        H      0.243400000000     0.616000000000     0.787800000000     0.086      
H        H      0.283400000000     0.540600000000     0.784500000000     0.086      
H        H      0.374100000000     0.589200000000     0.685400000000     0.086      
H        H      0.338200000000     0.666700000000     0.687000000000     0.086      
H        H      0.800300000000     0.383700000000     0.406200000000     0.086      
H        H      0.794400000000     0.353100000000     0.328600000000     0.086      
H        H      0.720600000000     0.236000000000     0.382800000000     0.086      
H        H      0.725700000000     0.272100000000     0.458400000000     0.086      
H        H      0.774200000000     0.202000000000     0.315300000000     0.086      
H        H      0.743400000000     0.116000000000     0.287800000000     0.086      
H        H      0.783400000000     0.040600000000     0.284500000000     0.086      
H        H      0.874100000000     0.089200000000     0.185400000000     0.086      
H        H      0.838200000000     0.166700000000     0.187000000000     0.086      
H        H      0.199700000000     0.116300000000     0.406200000000     0.086      
H        H      0.205600000000     0.146900000000     0.328600000000     0.086      
H        H      0.279400000000     0.264000000000     0.382800000000     0.086      
H        H      0.274300000000     0.227900000000     0.458400000000     0.086      
H        H      0.225800000000     0.298000000000     0.315300000000     0.086      
H        H      0.256600000000     0.384000000000     0.287800000000     0.086      
H        H      0.216600000000     0.459400000000     0.284500000000     0.086      
H        H      0.125900000000     0.410800000000     0.185400000000     0.086      
H        H      0.161800000000     0.333300000000     0.187000000000     0.086      
H        H      0.699700000000     0.616300000000     0.906200000000     0.086      
H        H      0.705600000000     0.646900000000     0.828600000000     0.086      
H        H      0.779400000000     0.764000000000     0.882800000000     0.086      
H        H      0.774300000000     0.727900000000     0.958400000000     0.086      
H        H      0.725800000000     0.798000000000     0.815300000000     0.086      
H        H      0.756600000000     0.884000000000     0.787800000000     0.086      
H        H      0.716600000000     0.959400000000     0.784500000000     0.086      
H        H      0.625900000000     0.910800000000     0.685400000000     0.086      
H        H      0.661800000000     0.833300000000     0.687000000000     0.086      
Cu       Cu     0.750000000000     0.370850000000     0.500000000000    -0.026      
Cu       Cu     0.250000000000     0.870850000000     0.000000000000    -0.026      
Cu       Cu     0.750000000000     0.629150000000     0.000000000000    -0.026      
Cu       Cu     0.250000000000     0.129150000000     0.500000000000    -0.026      
Cu       Cu     0.879150000000     0.500000000000     0.750000000000    -0.026      
Cu       Cu     0.379150000000     0.000000000000     0.250000000000    -0.026      
Cu       Cu     0.620850000000     0.500000000000     0.250000000000    -0.026      
Cu       Cu     0.120850000000     0.000000000000     0.750000000000    -0.026      
Cu       Cu     0.250000000000     0.629150000000     0.500000000000    -0.026      
Cu       Cu     0.750000000000     0.129150000000     0.000000000000    -0.026      
Cu       Cu     0.250000000000     0.370850000000     0.000000000000    -0.026      
Cu       Cu     0.750000000000     0.870850000000     0.500000000000    -0.026      
Cu       Cu     0.120850000000     0.500000000000     0.250000000000    -0.026      
Cu       Cu     0.620850000000     0.000000000000     0.750000000000    -0.026      
Cu       Cu     0.379150000000     0.500000000000     0.750000000000    -0.026      
Cu       Cu     0.879150000000     0.000000000000     0.250000000000    -0.026      


