data_ABAYIO_clean

_audit_creation_method RASPA-1.0
_audit_creation_date 2022-6-18
_audit_author_name 'Xiaoqi Zhang'

_cell_length_a    26.771
_cell_length_b    26.771
_cell_length_c    26.771
_cell_angle_alpha 90
_cell_angle_beta  90
_cell_angle_gamma 90
_cell_volume      19186.4

_symmetry_cell_setting          triclinic
_symmetry_space_group_name_Hall 'P 1'
_symmetry_space_group_name_H-M  'P 1'
_symmetry_Int_Tables_number     1

_symmetry_equiv_pos_as_xyz 'x,y,z'

loop_
_atom_site_label
_atom_site_type_symbol
_atom_site_fract_x
_atom_site_fract_y
_atom_site_fract_z
_atom_site_charge
O        O      0.258700000000     0.183200000000     0.945400000000    -0.423      
O        O      0.258700000000     0.683200000000     0.445400000000    -0.452      
O        O      0.758700000000     0.183200000000     0.445400000000    -0.453      
O        O      0.758700000000     0.683200000000     0.945400000000    -0.419      
O        O      0.741300000000     0.816800000000     0.945400000000    -0.414      
O        O      0.741300000000     0.316800000000     0.445400000000    -0.451      
O        O      0.241300000000     0.816800000000     0.445400000000    -0.448      
O        O      0.241300000000     0.316800000000     0.945400000000    -0.421      
O        O      0.741300000000     0.183200000000     0.054600000000    -0.466      
O        O      0.741300000000     0.683200000000     0.554600000000    -0.451      
O        O      0.241300000000     0.183200000000     0.554600000000    -0.456      
O        O      0.241300000000     0.683200000000     0.054600000000    -0.465      
O        O      0.258700000000     0.816800000000     0.054600000000    -0.459      
O        O      0.258700000000     0.316800000000     0.554600000000    -0.451      
O        O      0.758700000000     0.816800000000     0.554600000000    -0.444      
O        O      0.758700000000     0.316800000000     0.054600000000    -0.462      
O        O      0.945400000000     0.258700000000     0.183200000000    -0.422      
O        O      0.945400000000     0.758700000000     0.683200000000    -0.418      
O        O      0.445400000000     0.258700000000     0.683200000000    -0.451      
O        O      0.445400000000     0.758700000000     0.183200000000    -0.452      
O        O      0.945400000000     0.741300000000     0.816800000000    -0.413      
O        O      0.945400000000     0.241300000000     0.316800000000    -0.42       
O        O      0.445400000000     0.741300000000     0.316800000000    -0.45       
O        O      0.445400000000     0.241300000000     0.816800000000    -0.447      
O        O      0.054600000000     0.741300000000     0.183200000000    -0.465      
O        O      0.054600000000     0.241300000000     0.683200000000    -0.464      
O        O      0.554600000000     0.741300000000     0.683200000000    -0.45       
O        O      0.554600000000     0.241300000000     0.183200000000    -0.455      
O        O      0.054600000000     0.258700000000     0.816800000000    -0.459      
O        O      0.054600000000     0.758700000000     0.316800000000    -0.462      
O        O      0.554600000000     0.258700000000     0.316800000000    -0.451      
O        O      0.554600000000     0.758700000000     0.816800000000    -0.444      
O        O      0.183200000000     0.945400000000     0.258700000000    -0.422      
O        O      0.183200000000     0.445400000000     0.758700000000    -0.452      
O        O      0.683200000000     0.945400000000     0.758700000000    -0.418      
O        O      0.683200000000     0.445400000000     0.258700000000    -0.451      
O        O      0.816800000000     0.945400000000     0.741300000000    -0.413      
O        O      0.816800000000     0.445400000000     0.241300000000    -0.447      
O        O      0.316800000000     0.945400000000     0.241300000000    -0.42       
O        O      0.316800000000     0.445400000000     0.741300000000    -0.45       
O        O      0.183200000000     0.054600000000     0.741300000000    -0.465      
O        O      0.183200000000     0.554600000000     0.241300000000    -0.455      
O        O      0.683200000000     0.054600000000     0.241300000000    -0.464      
O        O      0.683200000000     0.554600000000     0.741300000000    -0.45       
O        O      0.816800000000     0.054600000000     0.258700000000    -0.459      
O        O      0.816800000000     0.554600000000     0.758700000000    -0.444      
O        O      0.316800000000     0.054600000000     0.758700000000    -0.462      
O        O      0.316800000000     0.554600000000     0.258700000000    -0.451      
O        O      0.183200000000     0.258700000000     0.054600000000    -0.466      
O        O      0.183200000000     0.758700000000     0.554600000000    -0.452      
O        O      0.683200000000     0.258700000000     0.554600000000    -0.451      
O        O      0.683200000000     0.758700000000     0.054600000000    -0.462      
O        O      0.816800000000     0.741300000000     0.054600000000    -0.458      
O        O      0.816800000000     0.241300000000     0.554600000000    -0.447      
O        O      0.316800000000     0.741300000000     0.554600000000    -0.45       
O        O      0.316800000000     0.241300000000     0.054600000000    -0.464      
O        O      0.183200000000     0.741300000000     0.945400000000    -0.421      
O        O      0.183200000000     0.241300000000     0.445400000000    -0.455      
O        O      0.683200000000     0.741300000000     0.445400000000    -0.45       
O        O      0.683200000000     0.241300000000     0.945400000000    -0.42       
O        O      0.816800000000     0.258700000000     0.945400000000    -0.415      
O        O      0.816800000000     0.758700000000     0.445400000000    -0.444      
O        O      0.316800000000     0.258700000000     0.445400000000    -0.451      
O        O      0.316800000000     0.758700000000     0.945400000000    -0.417      
O        O      0.258700000000     0.945400000000     0.816800000000    -0.415      
O        O      0.258700000000     0.445400000000     0.316800000000    -0.451      
O        O      0.758700000000     0.945400000000     0.316800000000    -0.417      
O        O      0.758700000000     0.445400000000     0.816800000000    -0.444      
O        O      0.741300000000     0.945400000000     0.183200000000    -0.421      
O        O      0.741300000000     0.445400000000     0.683200000000    -0.45       
O        O      0.241300000000     0.945400000000     0.683200000000    -0.42       
O        O      0.241300000000     0.445400000000     0.183200000000    -0.455      
O        O      0.741300000000     0.054600000000     0.816800000000    -0.458      
O        O      0.741300000000     0.554600000000     0.316800000000    -0.45       
O        O      0.241300000000     0.054600000000     0.316800000000    -0.464      
O        O      0.241300000000     0.554600000000     0.816800000000    -0.447      
O        O      0.258700000000     0.054600000000     0.183200000000    -0.466      
O        O      0.258700000000     0.554600000000     0.683200000000    -0.451      
O        O      0.758700000000     0.054600000000     0.683200000000    -0.462      
O        O      0.758700000000     0.554600000000     0.183200000000    -0.452      
O        O      0.945400000000     0.183200000000     0.741300000000    -0.421      
O        O      0.945400000000     0.683200000000     0.241300000000    -0.42       
O        O      0.445400000000     0.183200000000     0.241300000000    -0.455      
O        O      0.445400000000     0.683200000000     0.741300000000    -0.45       
O        O      0.945400000000     0.816800000000     0.258700000000    -0.415      
O        O      0.945400000000     0.316800000000     0.758700000000    -0.417      
O        O      0.445400000000     0.816800000000     0.758700000000    -0.444      
O        O      0.445400000000     0.316800000000     0.258700000000    -0.451      
O        O      0.054600000000     0.183200000000     0.258700000000    -0.466      
O        O      0.054600000000     0.683200000000     0.758700000000    -0.462      
O        O      0.554600000000     0.183200000000     0.758700000000    -0.452      
O        O      0.554600000000     0.683200000000     0.258700000000    -0.451      
O        O      0.054600000000     0.816800000000     0.741300000000    -0.458      
O        O      0.054600000000     0.316800000000     0.241300000000    -0.464      
O        O      0.554600000000     0.816800000000     0.241300000000    -0.447      
O        O      0.554600000000     0.316800000000     0.741300000000    -0.45       
O        O      0.741300000000     0.816800000000     0.054600000000    -0.458      
O        O      0.741300000000     0.316800000000     0.554600000000    -0.45       
O        O      0.241300000000     0.816800000000     0.554600000000    -0.447      
O        O      0.241300000000     0.316800000000     0.054600000000    -0.464      
O        O      0.258700000000     0.183200000000     0.054600000000    -0.466      
O        O      0.258700000000     0.683200000000     0.554600000000    -0.451      
O        O      0.758700000000     0.183200000000     0.554600000000    -0.452      
O        O      0.758700000000     0.683200000000     0.054600000000    -0.462      
O        O      0.258700000000     0.816800000000     0.945400000000    -0.415      
O        O      0.258700000000     0.316800000000     0.445400000000    -0.451      
O        O      0.758700000000     0.816800000000     0.445400000000    -0.444      
O        O      0.758700000000     0.316800000000     0.945400000000    -0.417      
O        O      0.741300000000     0.183200000000     0.945400000000    -0.421      
O        O      0.741300000000     0.683200000000     0.445400000000    -0.45       
O        O      0.241300000000     0.183200000000     0.445400000000    -0.455      
O        O      0.241300000000     0.683200000000     0.945400000000    -0.42       
O        O      0.054600000000     0.741300000000     0.816800000000    -0.458      
O        O      0.054600000000     0.241300000000     0.316800000000    -0.464      
O        O      0.554600000000     0.741300000000     0.316800000000    -0.45       
O        O      0.554600000000     0.241300000000     0.816800000000    -0.447      
O        O      0.054600000000     0.258700000000     0.183200000000    -0.466      
O        O      0.054600000000     0.758700000000     0.683200000000    -0.462      
O        O      0.554600000000     0.258700000000     0.683200000000    -0.451      
O        O      0.554600000000     0.758700000000     0.183200000000    -0.452      
O        O      0.945400000000     0.258700000000     0.816800000000    -0.415      
O        O      0.945400000000     0.758700000000     0.316800000000    -0.417      
O        O      0.445400000000     0.258700000000     0.316800000000    -0.451      
O        O      0.445400000000     0.758700000000     0.816800000000    -0.444      
O        O      0.945400000000     0.741300000000     0.183200000000    -0.421      
O        O      0.945400000000     0.241300000000     0.683200000000    -0.42       
O        O      0.445400000000     0.741300000000     0.683200000000    -0.45       
O        O      0.445400000000     0.241300000000     0.183200000000    -0.455      
O        O      0.816800000000     0.054600000000     0.741300000000    -0.458      
O        O      0.816800000000     0.554600000000     0.241300000000    -0.447      
O        O      0.316800000000     0.054600000000     0.241300000000    -0.464      
O        O      0.316800000000     0.554600000000     0.741300000000    -0.45       
O        O      0.183200000000     0.054600000000     0.258700000000    -0.466      
O        O      0.183200000000     0.554600000000     0.758700000000    -0.452      
O        O      0.683200000000     0.054600000000     0.758700000000    -0.462      
O        O      0.683200000000     0.554600000000     0.258700000000    -0.451      
O        O      0.816800000000     0.945400000000     0.258700000000    -0.415      
O        O      0.816800000000     0.445400000000     0.758700000000    -0.444      
O        O      0.316800000000     0.945400000000     0.758700000000    -0.417      
O        O      0.316800000000     0.445400000000     0.258700000000    -0.451      
O        O      0.183200000000     0.945400000000     0.741300000000    -0.421      
O        O      0.183200000000     0.445400000000     0.241300000000    -0.455      
O        O      0.683200000000     0.945400000000     0.241300000000    -0.42       
O        O      0.683200000000     0.445400000000     0.741300000000    -0.45       
O        O      0.816800000000     0.741300000000     0.945400000000    -0.413      
O        O      0.816800000000     0.241300000000     0.445400000000    -0.447      
O        O      0.316800000000     0.741300000000     0.445400000000    -0.45       
O        O      0.316800000000     0.241300000000     0.945400000000    -0.42       
O        O      0.183200000000     0.258700000000     0.945400000000    -0.422      
O        O      0.183200000000     0.758700000000     0.445400000000    -0.452      
O        O      0.683200000000     0.258700000000     0.445400000000    -0.451      
O        O      0.683200000000     0.758700000000     0.945400000000    -0.418      
O        O      0.816800000000     0.258700000000     0.054600000000    -0.459      
O        O      0.816800000000     0.758700000000     0.554600000000    -0.444      
O        O      0.316800000000     0.258700000000     0.554600000000    -0.451      
O        O      0.316800000000     0.758700000000     0.054600000000    -0.462      
O        O      0.183200000000     0.741300000000     0.054600000000    -0.465      
O        O      0.183200000000     0.241300000000     0.554600000000    -0.455      
O        O      0.683200000000     0.741300000000     0.554600000000    -0.45       
O        O      0.683200000000     0.241300000000     0.054600000000    -0.464      
O        O      0.741300000000     0.054600000000     0.183200000000    -0.465      
O        O      0.741300000000     0.554600000000     0.683200000000    -0.45       
O        O      0.241300000000     0.054600000000     0.683200000000    -0.464      
O        O      0.241300000000     0.554600000000     0.183200000000    -0.455      
O        O      0.258700000000     0.054600000000     0.816800000000    -0.459      
O        O      0.258700000000     0.554600000000     0.316800000000    -0.451      
O        O      0.758700000000     0.054600000000     0.316800000000    -0.462      
O        O      0.758700000000     0.554600000000     0.816800000000    -0.444      
O        O      0.258700000000     0.945400000000     0.183200000000    -0.422      
O        O      0.258700000000     0.445400000000     0.683200000000    -0.451      
O        O      0.758700000000     0.945400000000     0.683200000000    -0.418      
O        O      0.758700000000     0.445400000000     0.183200000000    -0.452      
O        O      0.741300000000     0.945400000000     0.816800000000    -0.413      
O        O      0.741300000000     0.445400000000     0.316800000000    -0.45       
O        O      0.241300000000     0.945400000000     0.316800000000    -0.42       
O        O      0.241300000000     0.445400000000     0.816800000000    -0.447      
O        O      0.054600000000     0.816800000000     0.258700000000    -0.459      
O        O      0.054600000000     0.316800000000     0.758700000000    -0.462      
O        O      0.554600000000     0.816800000000     0.758700000000    -0.444      
O        O      0.554600000000     0.316800000000     0.258700000000    -0.451      
O        O      0.054600000000     0.183200000000     0.741300000000    -0.465      
O        O      0.054600000000     0.683200000000     0.241300000000    -0.464      
O        O      0.554600000000     0.183200000000     0.241300000000    -0.455      
O        O      0.554600000000     0.683200000000     0.741300000000    -0.45       
O        O      0.945400000000     0.816800000000     0.741300000000    -0.413      
O        O      0.945400000000     0.316800000000     0.241300000000    -0.42       
O        O      0.445400000000     0.816800000000     0.241300000000    -0.447      
O        O      0.445400000000     0.316800000000     0.741300000000    -0.45       
O        O      0.945400000000     0.183200000000     0.258700000000    -0.422      
O        O      0.945400000000     0.683200000000     0.758700000000    -0.418      
O        O      0.445400000000     0.183200000000     0.758700000000    -0.452      
O        O      0.445400000000     0.683200000000     0.258700000000    -0.451      
Mn       Mn     0.207770000000     0.207770000000     0.000000000000     1.292      
Cl       Cl     0.145390000000     0.145390000000     0.000000000000    -0.431      
Mn       Mn     0.207770000000     0.707770000000     0.500000000000     1.312      
Cl       Cl     0.145390000000     0.645390000000     0.500000000000    -0.381      
Mn       Mn     0.707770000000     0.207770000000     0.500000000000     1.312      
Cl       Cl     0.645390000000     0.145390000000     0.500000000000    -0.381      
Mn       Mn     0.707770000000     0.707770000000     0.000000000000     1.292      
Cl       Cl     0.645390000000     0.645390000000     0.000000000000    -0.414      
Mn       Mn     0.792230000000     0.792230000000     0.000000000000     1.294      
Cl       Cl     0.854610000000     0.854610000000     0.000000000000    -0.374      
Mn       Mn     0.792230000000     0.292230000000     0.500000000000     1.313      
Cl       Cl     0.854610000000     0.354610000000     0.500000000000    -0.353      
Mn       Mn     0.292230000000     0.792230000000     0.500000000000     1.313      
Cl       Cl     0.354610000000     0.854610000000     0.500000000000    -0.353      
Mn       Mn     0.292230000000     0.292230000000     0.000000000000     1.292      
Cl       Cl     0.354610000000     0.354610000000     0.000000000000    -0.416      
Mn       Mn     0.792230000000     0.207770000000     0.000000000000     1.293      
Cl       Cl     0.854610000000     0.145390000000     0.000000000000    -0.402      
Mn       Mn     0.792230000000     0.707770000000     0.500000000000     1.313      
Cl       Cl     0.854610000000     0.645390000000     0.500000000000    -0.352      
Mn       Mn     0.292230000000     0.207770000000     0.500000000000     1.312      
Cl       Cl     0.354610000000     0.145390000000     0.500000000000    -0.382      
Mn       Mn     0.292230000000     0.707770000000     0.000000000000     1.292      
Cl       Cl     0.354610000000     0.645390000000     0.000000000000    -0.415      
Mn       Mn     0.207770000000     0.792230000000     0.000000000000     1.293      
Cl       Cl     0.145390000000     0.854610000000     0.000000000000    -0.402      
Mn       Mn     0.207770000000     0.292230000000     0.500000000000     1.312      
Cl       Cl     0.145390000000     0.354610000000     0.500000000000    -0.382      
Mn       Mn     0.707770000000     0.792230000000     0.500000000000     1.313      
Cl       Cl     0.645390000000     0.854610000000     0.500000000000    -0.352      
Mn       Mn     0.707770000000     0.292230000000     0.000000000000     1.292      
Cl       Cl     0.645390000000     0.354610000000     0.000000000000    -0.415      
Mn       Mn     0.000000000000     0.207770000000     0.207770000000     1.292      
Cl       Cl     0.000000000000     0.145390000000     0.145390000000    -0.431      
Mn       Mn     0.000000000000     0.707770000000     0.707770000000     1.292      
Cl       Cl     0.000000000000     0.645390000000     0.645390000000    -0.414      
Mn       Mn     0.500000000000     0.207770000000     0.707770000000     1.312      
Cl       Cl     0.500000000000     0.145390000000     0.645390000000    -0.381      
Mn       Mn     0.500000000000     0.707770000000     0.207770000000     1.312      
Cl       Cl     0.500000000000     0.645390000000     0.145390000000    -0.381      
Mn       Mn     0.000000000000     0.792230000000     0.792230000000     1.294      
Cl       Cl     0.000000000000     0.854610000000     0.854610000000    -0.374      
Mn       Mn     0.000000000000     0.292230000000     0.292230000000     1.292      
Cl       Cl     0.000000000000     0.354610000000     0.354610000000    -0.416      
Mn       Mn     0.500000000000     0.792230000000     0.292230000000     1.313      
Cl       Cl     0.500000000000     0.854610000000     0.354610000000    -0.353      
Mn       Mn     0.500000000000     0.292230000000     0.792230000000     1.313      
Cl       Cl     0.500000000000     0.354610000000     0.854610000000    -0.353      
Mn       Mn     0.000000000000     0.792230000000     0.207770000000     1.293      
Cl       Cl     0.000000000000     0.854610000000     0.145390000000    -0.402      
Mn       Mn     0.000000000000     0.292230000000     0.707770000000     1.292      
Cl       Cl     0.000000000000     0.354610000000     0.645390000000    -0.415      
Mn       Mn     0.500000000000     0.792230000000     0.707770000000     1.313      
Cl       Cl     0.500000000000     0.854610000000     0.645390000000    -0.352      
Mn       Mn     0.500000000000     0.292230000000     0.207770000000     1.312      
Cl       Cl     0.500000000000     0.354610000000     0.145390000000    -0.382      
Mn       Mn     0.000000000000     0.207770000000     0.792230000000     1.293      
Cl       Cl     0.000000000000     0.145390000000     0.854610000000    -0.402      
Mn       Mn     0.000000000000     0.707770000000     0.292230000000     1.292      
Cl       Cl     0.000000000000     0.645390000000     0.354610000000    -0.415      
Mn       Mn     0.500000000000     0.207770000000     0.292230000000     1.312      
Cl       Cl     0.500000000000     0.145390000000     0.354610000000    -0.382      
Mn       Mn     0.500000000000     0.707770000000     0.792230000000     1.313      
Cl       Cl     0.500000000000     0.645390000000     0.854610000000    -0.352      
Mn       Mn     0.207770000000     0.000000000000     0.207770000000     1.292      
Cl       Cl     0.145390000000     0.000000000000     0.145390000000    -0.431      
Mn       Mn     0.207770000000     0.500000000000     0.707770000000     1.312      
Cl       Cl     0.145390000000     0.500000000000     0.645390000000    -0.381      
Mn       Mn     0.707770000000     0.000000000000     0.707770000000     1.292      
Cl       Cl     0.645390000000     0.000000000000     0.645390000000    -0.414      
Mn       Mn     0.707770000000     0.500000000000     0.207770000000     1.312      
Cl       Cl     0.645390000000     0.500000000000     0.145390000000    -0.381      
Mn       Mn     0.792230000000     0.000000000000     0.792230000000     1.294      
Cl       Cl     0.854610000000     0.000000000000     0.854610000000    -0.374      
Mn       Mn     0.792230000000     0.500000000000     0.292230000000     1.313      
Cl       Cl     0.854610000000     0.500000000000     0.354610000000    -0.353      
Mn       Mn     0.292230000000     0.000000000000     0.292230000000     1.292      
Cl       Cl     0.354610000000     0.000000000000     0.354610000000    -0.416      
Mn       Mn     0.292230000000     0.500000000000     0.792230000000     1.313      
Cl       Cl     0.354610000000     0.500000000000     0.854610000000    -0.353      
Mn       Mn     0.207770000000     0.000000000000     0.792230000000     1.293      
Cl       Cl     0.145390000000     0.000000000000     0.854610000000    -0.402      
Mn       Mn     0.207770000000     0.500000000000     0.292230000000     1.312      
Cl       Cl     0.145390000000     0.500000000000     0.354610000000    -0.382      
Mn       Mn     0.707770000000     0.000000000000     0.292230000000     1.292      
Cl       Cl     0.645390000000     0.000000000000     0.354610000000    -0.415      
Mn       Mn     0.707770000000     0.500000000000     0.792230000000     1.313      
Cl       Cl     0.645390000000     0.500000000000     0.854610000000    -0.352      
Mn       Mn     0.792230000000     0.000000000000     0.207770000000     1.293      
Cl       Cl     0.854610000000     0.000000000000     0.145390000000    -0.402      
Mn       Mn     0.792230000000     0.500000000000     0.707770000000     1.313      
Cl       Cl     0.854610000000     0.500000000000     0.645390000000    -0.352      
Mn       Mn     0.292230000000     0.000000000000     0.707770000000     1.292      
Cl       Cl     0.354610000000     0.000000000000     0.645390000000    -0.415      
Mn       Mn     0.292230000000     0.500000000000     0.207770000000     1.312      
Cl       Cl     0.354610000000     0.500000000000     0.145390000000    -0.382      
C        C      0.322100000000     0.177900000000     0.885000000000    -0.131      
C        C      0.297500000000     0.202500000000     0.929800000000     0.422      
C        C      0.322100000000     0.677900000000     0.385000000000    -0.142      
C        C      0.297500000000     0.702500000000     0.429800000000     0.431      
C        C      0.677900000000     0.822100000000     0.885000000000    -0.118      
C        C      0.702500000000     0.797500000000     0.929800000000     0.42       
C        C      0.677900000000     0.322100000000     0.385000000000    -0.142      
C        C      0.702500000000     0.297500000000     0.429800000000     0.431      
C        C      0.177900000000     0.322100000000     0.885000000000    -0.131      
C        C      0.202500000000     0.297500000000     0.929800000000     0.422      
C        C      0.677900000000     0.177900000000     0.115000000000    -0.153      
C        C      0.702500000000     0.202500000000     0.070200000000     0.431      
C        C      0.677900000000     0.677900000000     0.615000000000    -0.141      
C        C      0.702500000000     0.702500000000     0.570200000000     0.431      
C        C      0.177900000000     0.177900000000     0.615000000000    -0.151      
C        C      0.202500000000     0.202500000000     0.570200000000     0.432      
C        C      0.322100000000     0.822100000000     0.115000000000    -0.141      
C        C      0.297500000000     0.797500000000     0.070200000000     0.429      
C        C      0.322100000000     0.322100000000     0.615000000000    -0.143      
C        C      0.297500000000     0.297500000000     0.570200000000     0.432      
C        C      0.885000000000     0.322100000000     0.177900000000    -0.131      
C        C      0.929800000000     0.297500000000     0.202500000000     0.422      
C        C      0.385000000000     0.322100000000     0.677900000000    -0.142      
C        C      0.429800000000     0.297500000000     0.702500000000     0.431      
C        C      0.885000000000     0.677900000000     0.822100000000    -0.118      
C        C      0.929800000000     0.702500000000     0.797500000000     0.42       
C        C      0.885000000000     0.177900000000     0.322100000000    -0.131      
C        C      0.929800000000     0.202500000000     0.297500000000     0.422      
C        C      0.385000000000     0.677900000000     0.322100000000    -0.142      
C        C      0.429800000000     0.702500000000     0.297500000000     0.431      
C        C      0.115000000000     0.677900000000     0.177900000000    -0.153      
C        C      0.070200000000     0.702500000000     0.202500000000     0.431      
C        C      0.615000000000     0.677900000000     0.677900000000    -0.141      
C        C      0.570200000000     0.702500000000     0.702500000000     0.431      
C        C      0.615000000000     0.177900000000     0.177900000000    -0.151      
C        C      0.570200000000     0.202500000000     0.202500000000     0.432      
C        C      0.115000000000     0.322100000000     0.822100000000    -0.141      
C        C      0.070200000000     0.297500000000     0.797500000000     0.429      
C        C      0.615000000000     0.322100000000     0.322100000000    -0.143      
C        C      0.570200000000     0.297500000000     0.297500000000     0.432      
C        C      0.177900000000     0.885000000000     0.322100000000    -0.131      
C        C      0.202500000000     0.929800000000     0.297500000000     0.422      
C        C      0.177900000000     0.385000000000     0.822100000000    -0.138      
C        C      0.202500000000     0.429800000000     0.797500000000     0.43       
C        C      0.822100000000     0.885000000000     0.677900000000    -0.118      
C        C      0.797500000000     0.929800000000     0.702500000000     0.42       
C        C      0.822100000000     0.385000000000     0.177900000000    -0.138      
C        C      0.797500000000     0.429800000000     0.202500000000     0.43       
C        C      0.322100000000     0.885000000000     0.177900000000    -0.131      
C        C      0.297500000000     0.929800000000     0.202500000000     0.422      
C        C      0.177900000000     0.115000000000     0.677900000000    -0.153      
C        C      0.202500000000     0.070200000000     0.702500000000     0.431      
C        C      0.177900000000     0.615000000000     0.177900000000    -0.151      
C        C      0.202500000000     0.570200000000     0.202500000000     0.432      
C        C      0.822100000000     0.115000000000     0.322100000000    -0.141      
C        C      0.797500000000     0.070200000000     0.297500000000     0.429      
C        C      0.822100000000     0.615000000000     0.822100000000    -0.125      
C        C      0.797500000000     0.570200000000     0.797500000000     0.428      
C        C      0.322100000000     0.615000000000     0.322100000000    -0.143      
C        C      0.297500000000     0.570200000000     0.297500000000     0.432      
C        C      0.177900000000     0.322100000000     0.115000000000    -0.154      
C        C      0.202500000000     0.297500000000     0.070200000000     0.431      
C        C      0.177900000000     0.822100000000     0.615000000000    -0.138      
C        C      0.202500000000     0.797500000000     0.570200000000     0.43       
C        C      0.822100000000     0.677900000000     0.115000000000    -0.14       
C        C      0.797500000000     0.702500000000     0.070200000000     0.429      
C        C      0.822100000000     0.177900000000     0.615000000000    -0.138      
C        C      0.797500000000     0.202500000000     0.570200000000     0.43       
C        C      0.322100000000     0.177900000000     0.115000000000    -0.154      
C        C      0.297500000000     0.202500000000     0.070200000000     0.431      
C        C      0.177900000000     0.677900000000     0.885000000000    -0.131      
C        C      0.202500000000     0.702500000000     0.929800000000     0.422      
C        C      0.177900000000     0.177900000000     0.385000000000    -0.151      
C        C      0.202500000000     0.202500000000     0.429800000000     0.432      
C        C      0.822100000000     0.322100000000     0.885000000000    -0.118      
C        C      0.797500000000     0.297500000000     0.929800000000     0.42       
C        C      0.822100000000     0.822100000000     0.385000000000    -0.125      
C        C      0.797500000000     0.797500000000     0.429800000000     0.428      
C        C      0.322100000000     0.322100000000     0.385000000000    -0.143      
C        C      0.297500000000     0.297500000000     0.429800000000     0.432      
C        C      0.322100000000     0.885000000000     0.822100000000    -0.118      
C        C      0.297500000000     0.929800000000     0.797500000000     0.42       
C        C      0.322100000000     0.385000000000     0.322100000000    -0.143      
C        C      0.297500000000     0.429800000000     0.297500000000     0.432      
C        C      0.677900000000     0.885000000000     0.177900000000    -0.131      
C        C      0.702500000000     0.929800000000     0.202500000000     0.422      
C        C      0.677900000000     0.385000000000     0.677900000000    -0.142      
C        C      0.702500000000     0.429800000000     0.702500000000     0.431      
C        C      0.177900000000     0.385000000000     0.177900000000    -0.151      
C        C      0.202500000000     0.429800000000     0.202500000000     0.432      
C        C      0.677900000000     0.115000000000     0.822100000000    -0.14       
C        C      0.702500000000     0.070200000000     0.797500000000     0.429      
C        C      0.677900000000     0.615000000000     0.322100000000    -0.142      
C        C      0.702500000000     0.570200000000     0.297500000000     0.431      
C        C      0.177900000000     0.115000000000     0.322100000000    -0.154      
C        C      0.202500000000     0.070200000000     0.297500000000     0.431      
C        C      0.322100000000     0.115000000000     0.177900000000    -0.154      
C        C      0.297500000000     0.070200000000     0.202500000000     0.431      
C        C      0.322100000000     0.615000000000     0.677900000000    -0.142      
C        C      0.297500000000     0.570200000000     0.702500000000     0.431      
C        C      0.885000000000     0.177900000000     0.677900000000    -0.131      
C        C      0.929800000000     0.202500000000     0.702500000000     0.422      
C        C      0.385000000000     0.177900000000     0.177900000000    -0.151      
C        C      0.429800000000     0.202500000000     0.202500000000     0.432      
C        C      0.885000000000     0.822100000000     0.322100000000    -0.118      
C        C      0.929800000000     0.797500000000     0.297500000000     0.42       
C        C      0.385000000000     0.822100000000     0.822100000000    -0.125      
C        C      0.429800000000     0.797500000000     0.797500000000     0.428      
C        C      0.385000000000     0.322100000000     0.322100000000    -0.143      
C        C      0.429800000000     0.297500000000     0.297500000000     0.432      
C        C      0.115000000000     0.177900000000     0.322100000000    -0.154      
C        C      0.070200000000     0.202500000000     0.297500000000     0.431      
C        C      0.615000000000     0.177900000000     0.822100000000    -0.138      
C        C      0.570200000000     0.202500000000     0.797500000000     0.43       
C        C      0.115000000000     0.822100000000     0.677900000000    -0.14       
C        C      0.070200000000     0.797500000000     0.702500000000     0.429      
C        C      0.115000000000     0.322100000000     0.177900000000    -0.154      
C        C      0.070200000000     0.297500000000     0.202500000000     0.431      
C        C      0.615000000000     0.822100000000     0.177900000000    -0.138      
C        C      0.570200000000     0.797500000000     0.202500000000     0.43       
C        C      0.677900000000     0.822100000000     0.115000000000    -0.14       
C        C      0.702500000000     0.797500000000     0.070200000000     0.429      
C        C      0.677900000000     0.322100000000     0.615000000000    -0.142      
C        C      0.702500000000     0.297500000000     0.570200000000     0.431      
C        C      0.322100000000     0.677900000000     0.615000000000    -0.142      
C        C      0.297500000000     0.702500000000     0.570200000000     0.431      
C        C      0.322100000000     0.822100000000     0.885000000000    -0.118      
C        C      0.297500000000     0.797500000000     0.929800000000     0.42       
C        C      0.677900000000     0.177900000000     0.885000000000    -0.131      
C        C      0.702500000000     0.202500000000     0.929800000000     0.422      
C        C      0.677900000000     0.677900000000     0.385000000000    -0.142      
C        C      0.702500000000     0.702500000000     0.429800000000     0.431      
C        C      0.115000000000     0.677900000000     0.822100000000    -0.14       
C        C      0.070200000000     0.702500000000     0.797500000000     0.429      
C        C      0.615000000000     0.677900000000     0.322100000000    -0.142      
C        C      0.570200000000     0.702500000000     0.297500000000     0.431      
C        C      0.615000000000     0.322100000000     0.677900000000    -0.142      
C        C      0.570200000000     0.297500000000     0.702500000000     0.431      
C        C      0.885000000000     0.322100000000     0.822100000000    -0.118      
C        C      0.929800000000     0.297500000000     0.797500000000     0.42       
C        C      0.885000000000     0.677900000000     0.177900000000    -0.131      
C        C      0.929800000000     0.702500000000     0.202500000000     0.422      
C        C      0.385000000000     0.677900000000     0.677900000000    -0.142      
C        C      0.429800000000     0.702500000000     0.702500000000     0.431      
C        C      0.822100000000     0.115000000000     0.677900000000    -0.14       
C        C      0.797500000000     0.070200000000     0.702500000000     0.429      
C        C      0.822100000000     0.615000000000     0.177900000000    -0.138      
C        C      0.797500000000     0.570200000000     0.202500000000     0.43       
C        C      0.177900000000     0.615000000000     0.822100000000    -0.138      
C        C      0.202500000000     0.570200000000     0.797500000000     0.43       
C        C      0.822100000000     0.885000000000     0.322100000000    -0.118      
C        C      0.797500000000     0.929800000000     0.297500000000     0.42       
C        C      0.822100000000     0.385000000000     0.822100000000    -0.125      
C        C      0.797500000000     0.429800000000     0.797500000000     0.428      
C        C      0.177900000000     0.885000000000     0.677900000000    -0.131      
C        C      0.202500000000     0.929800000000     0.702500000000     0.422      
C        C      0.822100000000     0.677900000000     0.885000000000    -0.118      
C        C      0.797500000000     0.702500000000     0.929800000000     0.42       
C        C      0.822100000000     0.177900000000     0.385000000000    -0.138      
C        C      0.797500000000     0.202500000000     0.429800000000     0.43       
C        C      0.177900000000     0.822100000000     0.385000000000    -0.138      
C        C      0.202500000000     0.797500000000     0.429800000000     0.43       
C        C      0.822100000000     0.322100000000     0.115000000000    -0.141      
C        C      0.797500000000     0.297500000000     0.070200000000     0.429      
C        C      0.822100000000     0.822100000000     0.615000000000    -0.125      
C        C      0.797500000000     0.797500000000     0.570200000000     0.428      
C        C      0.177900000000     0.677900000000     0.115000000000    -0.153      
C        C      0.202500000000     0.702500000000     0.070200000000     0.431      
C        C      0.677900000000     0.115000000000     0.177900000000    -0.153      
C        C      0.702500000000     0.070200000000     0.202500000000     0.431      
C        C      0.677900000000     0.615000000000     0.677900000000    -0.141      
C        C      0.702500000000     0.570200000000     0.702500000000     0.431      
C        C      0.322100000000     0.115000000000     0.822100000000    -0.141      
C        C      0.297500000000     0.070200000000     0.797500000000     0.429      
C        C      0.322100000000     0.385000000000     0.677900000000    -0.142      
C        C      0.297500000000     0.429800000000     0.702500000000     0.431      
C        C      0.677900000000     0.885000000000     0.822100000000    -0.118      
C        C      0.702500000000     0.929800000000     0.797500000000     0.42       
C        C      0.677900000000     0.385000000000     0.322100000000    -0.142      
C        C      0.702500000000     0.429800000000     0.297500000000     0.431      
C        C      0.115000000000     0.822100000000     0.322100000000    -0.141      
C        C      0.070200000000     0.797500000000     0.297500000000     0.429      
C        C      0.615000000000     0.822100000000     0.822100000000    -0.125      
C        C      0.570200000000     0.797500000000     0.797500000000     0.428      
C        C      0.115000000000     0.177900000000     0.677900000000    -0.153      
C        C      0.070200000000     0.202500000000     0.702500000000     0.431      
C        C      0.885000000000     0.822100000000     0.677900000000    -0.118      
C        C      0.929800000000     0.797500000000     0.702500000000     0.42       
C        C      0.385000000000     0.822100000000     0.177900000000    -0.138      
C        C      0.429800000000     0.797500000000     0.202500000000     0.43       
C        C      0.385000000000     0.177900000000     0.822100000000    -0.138      
C        C      0.429800000000     0.202500000000     0.797500000000     0.43       
C        C      0.301200000000     0.136300000000     0.863700000000     0.09       
H        H      0.271800000000     0.121700000000     0.878300000000     0.053      
C        C      0.301200000000     0.636300000000     0.363700000000     0.095      
H        H      0.271800000000     0.621700000000     0.378300000000     0.049      
C        C      0.801200000000     0.136300000000     0.363700000000     0.092      
H        H      0.771800000000     0.121700000000     0.378300000000     0.047      
C        C      0.801200000000     0.636300000000     0.863700000000     0.082      
H        H      0.771800000000     0.621700000000     0.878300000000     0.061      
C        C      0.698800000000     0.863700000000     0.863700000000     0.08       
H        H      0.728200000000     0.878300000000     0.878300000000     0.068      
C        C      0.698800000000     0.363700000000     0.363700000000     0.095      
H        H      0.728200000000     0.378300000000     0.378300000000     0.05       
C        C      0.198800000000     0.863700000000     0.363700000000     0.089      
H        H      0.228200000000     0.878300000000     0.378300000000     0.057      
C        C      0.198800000000     0.363700000000     0.863700000000     0.089      
H        H      0.228200000000     0.378300000000     0.878300000000     0.057      
C        C      0.698800000000     0.136300000000     0.136300000000     0.098      
H        H      0.728200000000     0.121700000000     0.121700000000     0.042      
C        C      0.698800000000     0.636300000000     0.636300000000     0.093      
H        H      0.728200000000     0.621700000000     0.621700000000     0.05       
C        C      0.198800000000     0.136300000000     0.636300000000     0.098      
H        H      0.228200000000     0.121700000000     0.621700000000     0.043      
C        C      0.198800000000     0.636300000000     0.136300000000     0.098      
H        H      0.228200000000     0.621700000000     0.121700000000     0.043      
C        C      0.301200000000     0.863700000000     0.136300000000     0.09       
H        H      0.271800000000     0.878300000000     0.121700000000     0.053      
C        C      0.301200000000     0.363700000000     0.636300000000     0.095      
H        H      0.271800000000     0.378300000000     0.621700000000     0.049      
C        C      0.801200000000     0.863700000000     0.636300000000     0.082      
H        H      0.771800000000     0.878300000000     0.621700000000     0.061      
C        C      0.801200000000     0.363700000000     0.136300000000     0.092      
H        H      0.771800000000     0.378300000000     0.121700000000     0.047      
C        C      0.863700000000     0.301200000000     0.136300000000     0.09       
H        H      0.878300000000     0.271800000000     0.121700000000     0.053      
C        C      0.863700000000     0.801200000000     0.636300000000     0.082      
H        H      0.878300000000     0.771800000000     0.621700000000     0.061      
C        C      0.363700000000     0.301200000000     0.636300000000     0.095      
H        H      0.378300000000     0.271800000000     0.621700000000     0.049      
C        C      0.363700000000     0.801200000000     0.136300000000     0.092      
H        H      0.378300000000     0.771800000000     0.121700000000     0.047      
C        C      0.863700000000     0.698800000000     0.863700000000     0.08       
H        H      0.878300000000     0.728200000000     0.878300000000     0.068      
C        C      0.863700000000     0.198800000000     0.363700000000     0.089      
H        H      0.878300000000     0.228200000000     0.378300000000     0.057      
C        C      0.363700000000     0.698800000000     0.363700000000     0.095      
H        H      0.378300000000     0.728200000000     0.378300000000     0.05       
C        C      0.363700000000     0.198800000000     0.863700000000     0.089      
H        H      0.378300000000     0.228200000000     0.878300000000     0.057      
C        C      0.136300000000     0.698800000000     0.136300000000     0.098      
H        H      0.121700000000     0.728200000000     0.121700000000     0.042      
C        C      0.136300000000     0.198800000000     0.636300000000     0.098      
H        H      0.121700000000     0.228200000000     0.621700000000     0.043      
C        C      0.636300000000     0.698800000000     0.636300000000     0.093      
H        H      0.621700000000     0.728200000000     0.621700000000     0.05       
C        C      0.636300000000     0.198800000000     0.136300000000     0.098      
H        H      0.621700000000     0.228200000000     0.121700000000     0.043      
C        C      0.136300000000     0.301200000000     0.863700000000     0.09       
H        H      0.121700000000     0.271800000000     0.878300000000     0.053      
C        C      0.136300000000     0.801200000000     0.363700000000     0.092      
H        H      0.121700000000     0.771800000000     0.378300000000     0.047      
C        C      0.636300000000     0.301200000000     0.363700000000     0.095      
H        H      0.621700000000     0.271800000000     0.378300000000     0.049      
C        C      0.636300000000     0.801200000000     0.863700000000     0.082      
H        H      0.621700000000     0.771800000000     0.878300000000     0.061      
C        C      0.136300000000     0.863700000000     0.301200000000     0.09       
H        H      0.121700000000     0.878300000000     0.271800000000     0.053      
C        C      0.136300000000     0.363700000000     0.801200000000     0.092      
H        H      0.121700000000     0.378300000000     0.771800000000     0.047      
C        C      0.636300000000     0.863700000000     0.801200000000     0.082      
H        H      0.621700000000     0.878300000000     0.771800000000     0.061      
C        C      0.636300000000     0.363700000000     0.301200000000     0.095      
H        H      0.621700000000     0.378300000000     0.271800000000     0.049      
C        C      0.863700000000     0.863700000000     0.698800000000     0.08       
H        H      0.878300000000     0.878300000000     0.728200000000     0.068      
C        C      0.863700000000     0.363700000000     0.198800000000     0.089      
H        H      0.878300000000     0.378300000000     0.228200000000     0.057      
C        C      0.363700000000     0.863700000000     0.198800000000     0.089      
H        H      0.378300000000     0.878300000000     0.228200000000     0.057      
C        C      0.363700000000     0.363700000000     0.698800000000     0.095      
H        H      0.378300000000     0.378300000000     0.728200000000     0.05       
C        C      0.136300000000     0.136300000000     0.698800000000     0.098      
H        H      0.121700000000     0.121700000000     0.728200000000     0.042      
C        C      0.136300000000     0.636300000000     0.198800000000     0.098      
H        H      0.121700000000     0.621700000000     0.228200000000     0.043      
C        C      0.636300000000     0.136300000000     0.198800000000     0.098      
H        H      0.621700000000     0.121700000000     0.228200000000     0.043      
C        C      0.636300000000     0.636300000000     0.698800000000     0.093      
H        H      0.621700000000     0.621700000000     0.728200000000     0.05       
C        C      0.863700000000     0.136300000000     0.301200000000     0.09       
H        H      0.878300000000     0.121700000000     0.271800000000     0.053      
C        C      0.863700000000     0.636300000000     0.801200000000     0.082      
H        H      0.878300000000     0.621700000000     0.771800000000     0.061      
C        C      0.363700000000     0.136300000000     0.801200000000     0.092      
H        H      0.378300000000     0.121700000000     0.771800000000     0.047      
C        C      0.363700000000     0.636300000000     0.301200000000     0.095      
H        H      0.378300000000     0.621700000000     0.271800000000     0.049      
C        C      0.136300000000     0.301200000000     0.136300000000     0.099      
H        H      0.121700000000     0.271800000000     0.121700000000     0.04       
C        C      0.136300000000     0.801200000000     0.636300000000     0.091      
H        H      0.121700000000     0.771800000000     0.621700000000     0.048      
C        C      0.636300000000     0.301200000000     0.636300000000     0.094      
H        H      0.621700000000     0.271800000000     0.621700000000     0.049      
C        C      0.636300000000     0.801200000000     0.136300000000     0.091      
H        H      0.621700000000     0.771800000000     0.121700000000     0.048      
C        C      0.863700000000     0.698800000000     0.136300000000     0.089      
H        H      0.878300000000     0.728200000000     0.121700000000     0.055      
C        C      0.863700000000     0.198800000000     0.636300000000     0.089      
H        H      0.878300000000     0.228200000000     0.621700000000     0.057      
C        C      0.363700000000     0.698800000000     0.636300000000     0.094      
H        H      0.378300000000     0.728200000000     0.621700000000     0.05       
C        C      0.363700000000     0.198800000000     0.136300000000     0.098      
H        H      0.378300000000     0.228200000000     0.121700000000     0.043      
C        C      0.136300000000     0.698800000000     0.863700000000     0.089      
H        H      0.121700000000     0.728200000000     0.878300000000     0.055      
C        C      0.136300000000     0.198800000000     0.363700000000     0.098      
H        H      0.121700000000     0.228200000000     0.378300000000     0.043      
C        C      0.636300000000     0.698800000000     0.363700000000     0.094      
H        H      0.621700000000     0.728200000000     0.378300000000     0.05       
C        C      0.636300000000     0.198800000000     0.863700000000     0.089      
H        H      0.621700000000     0.228200000000     0.878300000000     0.057      
C        C      0.863700000000     0.301200000000     0.863700000000     0.08       
H        H      0.878300000000     0.271800000000     0.878300000000     0.067      
C        C      0.863700000000     0.801200000000     0.363700000000     0.083      
H        H      0.878300000000     0.771800000000     0.378300000000     0.061      
C        C      0.363700000000     0.301200000000     0.363700000000     0.095      
H        H      0.378300000000     0.271800000000     0.378300000000     0.048      
C        C      0.363700000000     0.801200000000     0.863700000000     0.083      
H        H      0.378300000000     0.771800000000     0.878300000000     0.061      
C        C      0.301200000000     0.863700000000     0.863700000000     0.08       
H        H      0.271800000000     0.878300000000     0.878300000000     0.067      
C        C      0.301200000000     0.363700000000     0.363700000000     0.095      
H        H      0.271800000000     0.378300000000     0.378300000000     0.048      
C        C      0.801200000000     0.863700000000     0.363700000000     0.083      
H        H      0.771800000000     0.878300000000     0.378300000000     0.061      
C        C      0.801200000000     0.363700000000     0.863700000000     0.083      
H        H      0.771800000000     0.378300000000     0.878300000000     0.061      
C        C      0.698800000000     0.863700000000     0.136300000000     0.089      
H        H      0.728200000000     0.878300000000     0.121700000000     0.055      
C        C      0.698800000000     0.363700000000     0.636300000000     0.094      
H        H      0.728200000000     0.378300000000     0.621700000000     0.05       
C        C      0.198800000000     0.863700000000     0.636300000000     0.089      
H        H      0.228200000000     0.878300000000     0.621700000000     0.057      
C        C      0.198800000000     0.363700000000     0.136300000000     0.098      
H        H      0.228200000000     0.378300000000     0.121700000000     0.043      
C        C      0.698800000000     0.136300000000     0.863700000000     0.089      
H        H      0.728200000000     0.121700000000     0.878300000000     0.055      
C        C      0.698800000000     0.636300000000     0.363700000000     0.094      
H        H      0.728200000000     0.621700000000     0.378300000000     0.05       
C        C      0.198800000000     0.136300000000     0.363700000000     0.098      
H        H      0.228200000000     0.121700000000     0.378300000000     0.043      
C        C      0.198800000000     0.636300000000     0.863700000000     0.089      
H        H      0.228200000000     0.621700000000     0.878300000000     0.057      
C        C      0.301200000000     0.136300000000     0.136300000000     0.099      
H        H      0.271800000000     0.121700000000     0.121700000000     0.04       
C        C      0.301200000000     0.636300000000     0.636300000000     0.094      
H        H      0.271800000000     0.621700000000     0.621700000000     0.049      
C        C      0.801200000000     0.136300000000     0.636300000000     0.091      
H        H      0.771800000000     0.121700000000     0.621700000000     0.048      
C        C      0.801200000000     0.636300000000     0.136300000000     0.091      
H        H      0.771800000000     0.621700000000     0.121700000000     0.048      
C        C      0.863700000000     0.136300000000     0.698800000000     0.089      
H        H      0.878300000000     0.121700000000     0.728200000000     0.055      
C        C      0.863700000000     0.636300000000     0.198800000000     0.089      
H        H      0.878300000000     0.621700000000     0.228200000000     0.057      
C        C      0.363700000000     0.136300000000     0.198800000000     0.098      
H        H      0.378300000000     0.121700000000     0.228200000000     0.043      
C        C      0.363700000000     0.636300000000     0.698800000000     0.094      
H        H      0.378300000000     0.621700000000     0.728200000000     0.05       
C        C      0.863700000000     0.863700000000     0.301200000000     0.08       
H        H      0.878300000000     0.878300000000     0.271800000000     0.067      
C        C      0.863700000000     0.363700000000     0.801200000000     0.083      
H        H      0.878300000000     0.378300000000     0.771800000000     0.061      
C        C      0.363700000000     0.863700000000     0.801200000000     0.083      
H        H      0.378300000000     0.878300000000     0.771800000000     0.061      
C        C      0.363700000000     0.363700000000     0.301200000000     0.095      
H        H      0.378300000000     0.378300000000     0.271800000000     0.048      
C        C      0.136300000000     0.136300000000     0.301200000000     0.099      
H        H      0.121700000000     0.121700000000     0.271800000000     0.04       
C        C      0.136300000000     0.636300000000     0.801200000000     0.091      
H        H      0.121700000000     0.621700000000     0.771800000000     0.048      
C        C      0.636300000000     0.136300000000     0.801200000000     0.091      
H        H      0.621700000000     0.121700000000     0.771800000000     0.048      
C        C      0.636300000000     0.636300000000     0.301200000000     0.094      
H        H      0.621700000000     0.621700000000     0.271800000000     0.049      
C        C      0.136300000000     0.863700000000     0.698800000000     0.089      
H        H      0.121700000000     0.878300000000     0.728200000000     0.055      
C        C      0.136300000000     0.363700000000     0.198800000000     0.098      
H        H      0.121700000000     0.378300000000     0.228200000000     0.043      
C        C      0.636300000000     0.863700000000     0.198800000000     0.089      
H        H      0.621700000000     0.878300000000     0.228200000000     0.057      
C        C      0.636300000000     0.363700000000     0.698800000000     0.094      
H        H      0.621700000000     0.378300000000     0.728200000000     0.05       


