data_ABAYIO_clean

_audit_creation_method RASPA-1.0
_audit_creation_date 2022-6-18
_audit_author_name 'Xiaoqi Zhang'

_cell_length_a    26.771
_cell_length_b    26.771
_cell_length_c    26.771
_cell_angle_alpha 90
_cell_angle_beta  90
_cell_angle_gamma 90
_cell_volume      19186.4

_symmetry_cell_setting          triclinic
_symmetry_space_group_name_Hall 'P 1'
_symmetry_space_group_name_H-M  'P 1'
_symmetry_Int_Tables_number     1

_symmetry_equiv_pos_as_xyz 'x,y,z'

loop_
_atom_site_label
_atom_site_type_symbol
_atom_site_fract_x
_atom_site_fract_y
_atom_site_fract_z
_atom_site_charge
O        O      0.258700000000     0.183200000000     0.945400000000    -0.421      
O        O      0.258700000000     0.683200000000     0.445400000000    -0.421      
O        O      0.758700000000     0.183200000000     0.445400000000    -0.421      
O        O      0.758700000000     0.683200000000     0.945400000000    -0.421      
O        O      0.741300000000     0.816800000000     0.945400000000    -0.421      
O        O      0.741300000000     0.316800000000     0.445400000000    -0.421      
O        O      0.241300000000     0.816800000000     0.445400000000    -0.421      
O        O      0.241300000000     0.316800000000     0.945400000000    -0.421      
O        O      0.741300000000     0.183200000000     0.054600000000    -0.421      
O        O      0.741300000000     0.683200000000     0.554600000000    -0.421      
O        O      0.241300000000     0.183200000000     0.554600000000    -0.421      
O        O      0.241300000000     0.683200000000     0.054600000000    -0.421      
O        O      0.258700000000     0.816800000000     0.054600000000    -0.421      
O        O      0.258700000000     0.316800000000     0.554600000000    -0.421      
O        O      0.758700000000     0.816800000000     0.554600000000    -0.421      
O        O      0.758700000000     0.316800000000     0.054600000000    -0.421      
O        O      0.945400000000     0.258700000000     0.183200000000    -0.421      
O        O      0.945400000000     0.758700000000     0.683200000000    -0.421      
O        O      0.445400000000     0.258700000000     0.683200000000    -0.421      
O        O      0.445400000000     0.758700000000     0.183200000000    -0.421      
O        O      0.945400000000     0.741300000000     0.816800000000    -0.421      
O        O      0.945400000000     0.241300000000     0.316800000000    -0.421      
O        O      0.445400000000     0.741300000000     0.316800000000    -0.421      
O        O      0.445400000000     0.241300000000     0.816800000000    -0.421      
O        O      0.054600000000     0.741300000000     0.183200000000    -0.421      
O        O      0.054600000000     0.241300000000     0.683200000000    -0.421      
O        O      0.554600000000     0.741300000000     0.683200000000    -0.421      
O        O      0.554600000000     0.241300000000     0.183200000000    -0.421      
O        O      0.054600000000     0.258700000000     0.816800000000    -0.421      
O        O      0.054600000000     0.758700000000     0.316800000000    -0.421      
O        O      0.554600000000     0.258700000000     0.316800000000    -0.421      
O        O      0.554600000000     0.758700000000     0.816800000000    -0.421      
O        O      0.183200000000     0.945400000000     0.258700000000    -0.421      
O        O      0.183200000000     0.445400000000     0.758700000000    -0.421      
O        O      0.683200000000     0.945400000000     0.758700000000    -0.421      
O        O      0.683200000000     0.445400000000     0.258700000000    -0.421      
O        O      0.816800000000     0.945400000000     0.741300000000    -0.421      
O        O      0.816800000000     0.445400000000     0.241300000000    -0.421      
O        O      0.316800000000     0.945400000000     0.241300000000    -0.421      
O        O      0.316800000000     0.445400000000     0.741300000000    -0.421      
O        O      0.183200000000     0.054600000000     0.741300000000    -0.421      
O        O      0.183200000000     0.554600000000     0.241300000000    -0.421      
O        O      0.683200000000     0.054600000000     0.241300000000    -0.421      
O        O      0.683200000000     0.554600000000     0.741300000000    -0.421      
O        O      0.816800000000     0.054600000000     0.258700000000    -0.421      
O        O      0.816800000000     0.554600000000     0.758700000000    -0.421      
O        O      0.316800000000     0.054600000000     0.758700000000    -0.421      
O        O      0.316800000000     0.554600000000     0.258700000000    -0.421      
O        O      0.183200000000     0.258700000000     0.054600000000    -0.421      
O        O      0.183200000000     0.758700000000     0.554600000000    -0.421      
O        O      0.683200000000     0.258700000000     0.554600000000    -0.421      
O        O      0.683200000000     0.758700000000     0.054600000000    -0.421      
O        O      0.816800000000     0.741300000000     0.054600000000    -0.421      
O        O      0.816800000000     0.241300000000     0.554600000000    -0.421      
O        O      0.316800000000     0.741300000000     0.554600000000    -0.421      
O        O      0.316800000000     0.241300000000     0.054600000000    -0.421      
O        O      0.183200000000     0.741300000000     0.945400000000    -0.421      
O        O      0.183200000000     0.241300000000     0.445400000000    -0.421      
O        O      0.683200000000     0.741300000000     0.445400000000    -0.421      
O        O      0.683200000000     0.241300000000     0.945400000000    -0.421      
O        O      0.816800000000     0.258700000000     0.945400000000    -0.421      
O        O      0.816800000000     0.758700000000     0.445400000000    -0.421      
O        O      0.316800000000     0.258700000000     0.445400000000    -0.421      
O        O      0.316800000000     0.758700000000     0.945400000000    -0.421      
O        O      0.258700000000     0.945400000000     0.816800000000    -0.421      
O        O      0.258700000000     0.445400000000     0.316800000000    -0.421      
O        O      0.758700000000     0.945400000000     0.316800000000    -0.421      
O        O      0.758700000000     0.445400000000     0.816800000000    -0.421      
O        O      0.741300000000     0.945400000000     0.183200000000    -0.421      
O        O      0.741300000000     0.445400000000     0.683200000000    -0.421      
O        O      0.241300000000     0.945400000000     0.683200000000    -0.421      
O        O      0.241300000000     0.445400000000     0.183200000000    -0.421      
O        O      0.741300000000     0.054600000000     0.816800000000    -0.421      
O        O      0.741300000000     0.554600000000     0.316800000000    -0.421      
O        O      0.241300000000     0.054600000000     0.316800000000    -0.421      
O        O      0.241300000000     0.554600000000     0.816800000000    -0.421      
O        O      0.258700000000     0.054600000000     0.183200000000    -0.421      
O        O      0.258700000000     0.554600000000     0.683200000000    -0.421      
O        O      0.758700000000     0.054600000000     0.683200000000    -0.421      
O        O      0.758700000000     0.554600000000     0.183200000000    -0.421      
O        O      0.945400000000     0.183200000000     0.741300000000    -0.421      
O        O      0.945400000000     0.683200000000     0.241300000000    -0.421      
O        O      0.445400000000     0.183200000000     0.241300000000    -0.421      
O        O      0.445400000000     0.683200000000     0.741300000000    -0.421      
O        O      0.945400000000     0.816800000000     0.258700000000    -0.421      
O        O      0.945400000000     0.316800000000     0.758700000000    -0.421      
O        O      0.445400000000     0.816800000000     0.758700000000    -0.421      
O        O      0.445400000000     0.316800000000     0.258700000000    -0.421      
O        O      0.054600000000     0.183200000000     0.258700000000    -0.421      
O        O      0.054600000000     0.683200000000     0.758700000000    -0.421      
O        O      0.554600000000     0.183200000000     0.758700000000    -0.421      
O        O      0.554600000000     0.683200000000     0.258700000000    -0.421      
O        O      0.054600000000     0.816800000000     0.741300000000    -0.421      
O        O      0.054600000000     0.316800000000     0.241300000000    -0.421      
O        O      0.554600000000     0.816800000000     0.241300000000    -0.421      
O        O      0.554600000000     0.316800000000     0.741300000000    -0.421      
O        O      0.741300000000     0.816800000000     0.054600000000    -0.421      
O        O      0.741300000000     0.316800000000     0.554600000000    -0.421      
O        O      0.241300000000     0.816800000000     0.554600000000    -0.421      
O        O      0.241300000000     0.316800000000     0.054600000000    -0.421      
O        O      0.258700000000     0.183200000000     0.054600000000    -0.421      
O        O      0.258700000000     0.683200000000     0.554600000000    -0.421      
O        O      0.758700000000     0.183200000000     0.554600000000    -0.421      
O        O      0.758700000000     0.683200000000     0.054600000000    -0.421      
O        O      0.258700000000     0.816800000000     0.945400000000    -0.421      
O        O      0.258700000000     0.316800000000     0.445400000000    -0.421      
O        O      0.758700000000     0.816800000000     0.445400000000    -0.421      
O        O      0.758700000000     0.316800000000     0.945400000000    -0.421      
O        O      0.741300000000     0.183200000000     0.945400000000    -0.421      
O        O      0.741300000000     0.683200000000     0.445400000000    -0.421      
O        O      0.241300000000     0.183200000000     0.445400000000    -0.421      
O        O      0.241300000000     0.683200000000     0.945400000000    -0.421      
O        O      0.054600000000     0.741300000000     0.816800000000    -0.421      
O        O      0.054600000000     0.241300000000     0.316800000000    -0.421      
O        O      0.554600000000     0.741300000000     0.316800000000    -0.421      
O        O      0.554600000000     0.241300000000     0.816800000000    -0.421      
O        O      0.054600000000     0.258700000000     0.183200000000    -0.421      
O        O      0.054600000000     0.758700000000     0.683200000000    -0.421      
O        O      0.554600000000     0.258700000000     0.683200000000    -0.421      
O        O      0.554600000000     0.758700000000     0.183200000000    -0.421      
O        O      0.945400000000     0.258700000000     0.816800000000    -0.421      
O        O      0.945400000000     0.758700000000     0.316800000000    -0.421      
O        O      0.445400000000     0.258700000000     0.316800000000    -0.421      
O        O      0.445400000000     0.758700000000     0.816800000000    -0.421      
O        O      0.945400000000     0.741300000000     0.183200000000    -0.421      
O        O      0.945400000000     0.241300000000     0.683200000000    -0.421      
O        O      0.445400000000     0.741300000000     0.683200000000    -0.421      
O        O      0.445400000000     0.241300000000     0.183200000000    -0.421      
O        O      0.816800000000     0.054600000000     0.741300000000    -0.421      
O        O      0.816800000000     0.554600000000     0.241300000000    -0.421      
O        O      0.316800000000     0.054600000000     0.241300000000    -0.421      
O        O      0.316800000000     0.554600000000     0.741300000000    -0.421      
O        O      0.183200000000     0.054600000000     0.258700000000    -0.421      
O        O      0.183200000000     0.554600000000     0.758700000000    -0.421      
O        O      0.683200000000     0.054600000000     0.758700000000    -0.421      
O        O      0.683200000000     0.554600000000     0.258700000000    -0.421      
O        O      0.816800000000     0.945400000000     0.258700000000    -0.421      
O        O      0.816800000000     0.445400000000     0.758700000000    -0.421      
O        O      0.316800000000     0.945400000000     0.758700000000    -0.421      
O        O      0.316800000000     0.445400000000     0.258700000000    -0.421      
O        O      0.183200000000     0.945400000000     0.741300000000    -0.421      
O        O      0.183200000000     0.445400000000     0.241300000000    -0.421      
O        O      0.683200000000     0.945400000000     0.241300000000    -0.421      
O        O      0.683200000000     0.445400000000     0.741300000000    -0.421      
O        O      0.816800000000     0.741300000000     0.945400000000    -0.421      
O        O      0.816800000000     0.241300000000     0.445400000000    -0.421      
O        O      0.316800000000     0.741300000000     0.445400000000    -0.421      
O        O      0.316800000000     0.241300000000     0.945400000000    -0.421      
O        O      0.183200000000     0.258700000000     0.945400000000    -0.421      
O        O      0.183200000000     0.758700000000     0.445400000000    -0.421      
O        O      0.683200000000     0.258700000000     0.445400000000    -0.421      
O        O      0.683200000000     0.758700000000     0.945400000000    -0.421      
O        O      0.816800000000     0.258700000000     0.054600000000    -0.421      
O        O      0.816800000000     0.758700000000     0.554600000000    -0.421      
O        O      0.316800000000     0.258700000000     0.554600000000    -0.421      
O        O      0.316800000000     0.758700000000     0.054600000000    -0.421      
O        O      0.183200000000     0.741300000000     0.054600000000    -0.421      
O        O      0.183200000000     0.241300000000     0.554600000000    -0.421      
O        O      0.683200000000     0.741300000000     0.554600000000    -0.421      
O        O      0.683200000000     0.241300000000     0.054600000000    -0.421      
O        O      0.741300000000     0.054600000000     0.183200000000    -0.421      
O        O      0.741300000000     0.554600000000     0.683200000000    -0.421      
O        O      0.241300000000     0.054600000000     0.683200000000    -0.421      
O        O      0.241300000000     0.554600000000     0.183200000000    -0.421      
O        O      0.258700000000     0.054600000000     0.816800000000    -0.421      
O        O      0.258700000000     0.554600000000     0.316800000000    -0.421      
O        O      0.758700000000     0.054600000000     0.316800000000    -0.421      
O        O      0.758700000000     0.554600000000     0.816800000000    -0.421      
O        O      0.258700000000     0.945400000000     0.183200000000    -0.421      
O        O      0.258700000000     0.445400000000     0.683200000000    -0.421      
O        O      0.758700000000     0.945400000000     0.683200000000    -0.421      
O        O      0.758700000000     0.445400000000     0.183200000000    -0.421      
O        O      0.741300000000     0.945400000000     0.816800000000    -0.421      
O        O      0.741300000000     0.445400000000     0.316800000000    -0.421      
O        O      0.241300000000     0.945400000000     0.316800000000    -0.421      
O        O      0.241300000000     0.445400000000     0.816800000000    -0.421      
O        O      0.054600000000     0.816800000000     0.258700000000    -0.421      
O        O      0.054600000000     0.316800000000     0.758700000000    -0.421      
O        O      0.554600000000     0.816800000000     0.758700000000    -0.421      
O        O      0.554600000000     0.316800000000     0.258700000000    -0.421      
O        O      0.054600000000     0.183200000000     0.741300000000    -0.421      
O        O      0.054600000000     0.683200000000     0.241300000000    -0.421      
O        O      0.554600000000     0.183200000000     0.241300000000    -0.421      
O        O      0.554600000000     0.683200000000     0.741300000000    -0.421      
O        O      0.945400000000     0.816800000000     0.741300000000    -0.421      
O        O      0.945400000000     0.316800000000     0.241300000000    -0.421      
O        O      0.445400000000     0.816800000000     0.241300000000    -0.421      
O        O      0.445400000000     0.316800000000     0.741300000000    -0.421      
O        O      0.945400000000     0.183200000000     0.258700000000    -0.421      
O        O      0.945400000000     0.683200000000     0.758700000000    -0.421      
O        O      0.445400000000     0.183200000000     0.758700000000    -0.421      
O        O      0.445400000000     0.683200000000     0.258700000000    -0.421      
Mn       Mn     0.207770000000     0.207770000000     0.000000000000    -0.466      
Mn       Mn     0.207770000000     0.707770000000     0.500000000000    -0.466      
Mn       Mn     0.707770000000     0.207770000000     0.500000000000    -0.466      
Mn       Mn     0.707770000000     0.707770000000     0.000000000000    -0.466      
Mn       Mn     0.792230000000     0.792230000000     0.000000000000    -0.466      
Mn       Mn     0.792230000000     0.292230000000     0.500000000000    -0.466      
Mn       Mn     0.292230000000     0.792230000000     0.500000000000    -0.466      
Mn       Mn     0.292230000000     0.292230000000     0.000000000000    -0.466      
Mn       Mn     0.792230000000     0.207770000000     0.000000000000    -0.466      
Mn       Mn     0.792230000000     0.707770000000     0.500000000000    -0.466      
Mn       Mn     0.292230000000     0.207770000000     0.500000000000    -0.466      
Mn       Mn     0.292230000000     0.707770000000     0.000000000000    -0.466      
Mn       Mn     0.207770000000     0.792230000000     0.000000000000    -0.466      
Mn       Mn     0.207770000000     0.292230000000     0.500000000000    -0.466      
Mn       Mn     0.707770000000     0.792230000000     0.500000000000    -0.466      
Mn       Mn     0.707770000000     0.292230000000     0.000000000000    -0.466      
Mn       Mn     0.000000000000     0.207770000000     0.207770000000    -0.466      
Mn       Mn     0.000000000000     0.707770000000     0.707770000000    -0.466      
Mn       Mn     0.500000000000     0.207770000000     0.707770000000    -0.466      
Mn       Mn     0.500000000000     0.707770000000     0.207770000000    -0.466      
Mn       Mn     0.000000000000     0.792230000000     0.792230000000    -0.466      
Mn       Mn     0.000000000000     0.292230000000     0.292230000000    -0.466      
Mn       Mn     0.500000000000     0.792230000000     0.292230000000    -0.466      
Mn       Mn     0.500000000000     0.292230000000     0.792230000000    -0.466      
Mn       Mn     0.000000000000     0.792230000000     0.207770000000    -0.466      
Mn       Mn     0.000000000000     0.292230000000     0.707770000000    -0.466      
Mn       Mn     0.500000000000     0.792230000000     0.707770000000    -0.466      
Mn       Mn     0.500000000000     0.292230000000     0.207770000000    -0.466      
Mn       Mn     0.000000000000     0.207770000000     0.792230000000    -0.466      
Mn       Mn     0.000000000000     0.707770000000     0.292230000000    -0.466      
Mn       Mn     0.500000000000     0.207770000000     0.292230000000    -0.466      
Mn       Mn     0.500000000000     0.707770000000     0.792230000000    -0.466      
Mn       Mn     0.207770000000     0.000000000000     0.207770000000    -0.466      
Mn       Mn     0.207770000000     0.500000000000     0.707770000000    -0.466      
Mn       Mn     0.707770000000     0.000000000000     0.707770000000    -0.466      
Mn       Mn     0.707770000000     0.500000000000     0.207770000000    -0.466      
Mn       Mn     0.792230000000     0.000000000000     0.792230000000    -0.466      
Mn       Mn     0.792230000000     0.500000000000     0.292230000000    -0.466      
Mn       Mn     0.292230000000     0.000000000000     0.292230000000    -0.466      
Mn       Mn     0.292230000000     0.500000000000     0.792230000000    -0.466      
Mn       Mn     0.207770000000     0.000000000000     0.792230000000    -0.466      
Mn       Mn     0.207770000000     0.500000000000     0.292230000000    -0.466      
Mn       Mn     0.707770000000     0.000000000000     0.292230000000    -0.466      
Mn       Mn     0.707770000000     0.500000000000     0.792230000000    -0.466      
Mn       Mn     0.792230000000     0.000000000000     0.207770000000    -0.466      
Mn       Mn     0.792230000000     0.500000000000     0.707770000000    -0.466      
Mn       Mn     0.292230000000     0.000000000000     0.707770000000    -0.466      
Mn       Mn     0.292230000000     0.500000000000     0.207770000000    -0.466      
Cl       Cl     0.145390000000     0.145390000000     0.000000000000    -0.451      
Cl       Cl     0.145390000000     0.645390000000     0.500000000000    -0.451      
Cl       Cl     0.645390000000     0.145390000000     0.500000000000    -0.451      
Cl       Cl     0.645390000000     0.645390000000     0.000000000000    -0.451      
Cl       Cl     0.854610000000     0.854610000000     0.000000000000    -0.451      
Cl       Cl     0.854610000000     0.354610000000     0.500000000000    -0.451      
Cl       Cl     0.354610000000     0.854610000000     0.500000000000    -0.451      
Cl       Cl     0.354610000000     0.354610000000     0.000000000000    -0.451      
Cl       Cl     0.854610000000     0.145390000000     0.000000000000    -0.451      
Cl       Cl     0.854610000000     0.645390000000     0.500000000000    -0.451      
Cl       Cl     0.354610000000     0.145390000000     0.500000000000    -0.451      
Cl       Cl     0.354610000000     0.645390000000     0.000000000000    -0.451      
Cl       Cl     0.145390000000     0.854610000000     0.000000000000    -0.451      
Cl       Cl     0.145390000000     0.354610000000     0.500000000000    -0.451      
Cl       Cl     0.645390000000     0.854610000000     0.500000000000    -0.451      
Cl       Cl     0.645390000000     0.354610000000     0.000000000000    -0.451      
Cl       Cl     0.000000000000     0.145390000000     0.145390000000    -0.451      
Cl       Cl     0.000000000000     0.645390000000     0.645390000000    -0.451      
Cl       Cl     0.500000000000     0.145390000000     0.645390000000    -0.451      
Cl       Cl     0.500000000000     0.645390000000     0.145390000000    -0.451      
Cl       Cl     0.000000000000     0.854610000000     0.854610000000    -0.451      
Cl       Cl     0.000000000000     0.354610000000     0.354610000000    -0.451      
Cl       Cl     0.500000000000     0.854610000000     0.354610000000    -0.451      
Cl       Cl     0.500000000000     0.354610000000     0.854610000000    -0.451      
Cl       Cl     0.000000000000     0.854610000000     0.145390000000    -0.451      
Cl       Cl     0.000000000000     0.354610000000     0.645390000000    -0.451      
Cl       Cl     0.500000000000     0.854610000000     0.645390000000    -0.451      
Cl       Cl     0.500000000000     0.354610000000     0.145390000000    -0.451      
Cl       Cl     0.000000000000     0.145390000000     0.854610000000    -0.451      
Cl       Cl     0.000000000000     0.645390000000     0.354610000000    -0.451      
Cl       Cl     0.500000000000     0.145390000000     0.354610000000    -0.451      
Cl       Cl     0.500000000000     0.645390000000     0.854610000000    -0.451      
Cl       Cl     0.145390000000     0.000000000000     0.145390000000    -0.451      
Cl       Cl     0.145390000000     0.500000000000     0.645390000000    -0.451      
Cl       Cl     0.645390000000     0.000000000000     0.645390000000    -0.451      
Cl       Cl     0.645390000000     0.500000000000     0.145390000000    -0.451      
Cl       Cl     0.854610000000     0.000000000000     0.854610000000    -0.451      
Cl       Cl     0.854610000000     0.500000000000     0.354610000000    -0.451      
Cl       Cl     0.354610000000     0.000000000000     0.354610000000    -0.451      
Cl       Cl     0.354610000000     0.500000000000     0.854610000000    -0.451      
Cl       Cl     0.145390000000     0.000000000000     0.854610000000    -0.451      
Cl       Cl     0.145390000000     0.500000000000     0.354610000000    -0.451      
Cl       Cl     0.645390000000     0.000000000000     0.354610000000    -0.451      
Cl       Cl     0.645390000000     0.500000000000     0.854610000000    -0.451      
Cl       Cl     0.854610000000     0.000000000000     0.145390000000    -0.451      
Cl       Cl     0.854610000000     0.500000000000     0.645390000000    -0.451      
Cl       Cl     0.354610000000     0.000000000000     0.645390000000    -0.451      
Cl       Cl     0.354610000000     0.500000000000     0.145390000000    -0.451      
C        C      0.322100000000     0.177900000000     0.885000000000    -0.456      
C        C      0.297500000000     0.202500000000     0.929800000000    -0.456      
C        C      0.322100000000     0.677900000000     0.385000000000    -0.456      
C        C      0.297500000000     0.702500000000     0.429800000000    -0.456      
C        C      0.677900000000     0.822100000000     0.885000000000    -0.456      
C        C      0.702500000000     0.797500000000     0.929800000000    -0.456      
C        C      0.677900000000     0.322100000000     0.385000000000    -0.456      
C        C      0.702500000000     0.297500000000     0.429800000000    -0.456      
C        C      0.177900000000     0.322100000000     0.885000000000    -0.456      
C        C      0.202500000000     0.297500000000     0.929800000000    -0.456      
C        C      0.677900000000     0.177900000000     0.115000000000    -0.456      
C        C      0.702500000000     0.202500000000     0.070200000000    -0.456      
C        C      0.677900000000     0.677900000000     0.615000000000    -0.456      
C        C      0.702500000000     0.702500000000     0.570200000000    -0.456      
C        C      0.177900000000     0.177900000000     0.615000000000    -0.456      
C        C      0.202500000000     0.202500000000     0.570200000000    -0.456      
C        C      0.322100000000     0.822100000000     0.115000000000    -0.456      
C        C      0.297500000000     0.797500000000     0.070200000000    -0.456      
C        C      0.322100000000     0.322100000000     0.615000000000    -0.456      
C        C      0.297500000000     0.297500000000     0.570200000000    -0.456      
C        C      0.885000000000     0.322100000000     0.177900000000    -0.456      
C        C      0.929800000000     0.297500000000     0.202500000000    -0.456      
C        C      0.385000000000     0.322100000000     0.677900000000    -0.456      
C        C      0.429800000000     0.297500000000     0.702500000000    -0.456      
C        C      0.885000000000     0.677900000000     0.822100000000    -0.456      
C        C      0.929800000000     0.702500000000     0.797500000000    -0.456      
C        C      0.885000000000     0.177900000000     0.322100000000    -0.456      
C        C      0.929800000000     0.202500000000     0.297500000000    -0.456      
C        C      0.385000000000     0.677900000000     0.322100000000    -0.456      
C        C      0.429800000000     0.702500000000     0.297500000000    -0.456      
C        C      0.115000000000     0.677900000000     0.177900000000    -0.456      
C        C      0.070200000000     0.702500000000     0.202500000000    -0.456      
C        C      0.615000000000     0.677900000000     0.677900000000    -0.456      
C        C      0.570200000000     0.702500000000     0.702500000000    -0.456      
C        C      0.615000000000     0.177900000000     0.177900000000    -0.456      
C        C      0.570200000000     0.202500000000     0.202500000000    -0.456      
C        C      0.115000000000     0.322100000000     0.822100000000    -0.456      
C        C      0.070200000000     0.297500000000     0.797500000000    -0.456      
C        C      0.615000000000     0.322100000000     0.322100000000    -0.456      
C        C      0.570200000000     0.297500000000     0.297500000000    -0.456      
C        C      0.177900000000     0.885000000000     0.322100000000    -0.456      
C        C      0.202500000000     0.929800000000     0.297500000000    -0.456      
C        C      0.177900000000     0.385000000000     0.822100000000    -0.456      
C        C      0.202500000000     0.429800000000     0.797500000000    -0.456      
C        C      0.822100000000     0.885000000000     0.677900000000    -0.456      
C        C      0.797500000000     0.929800000000     0.702500000000    -0.456      
C        C      0.822100000000     0.385000000000     0.177900000000    -0.456      
C        C      0.797500000000     0.429800000000     0.202500000000    -0.456      
C        C      0.322100000000     0.885000000000     0.177900000000    -0.456      
C        C      0.297500000000     0.929800000000     0.202500000000    -0.456      
C        C      0.177900000000     0.115000000000     0.677900000000    -0.456      
C        C      0.202500000000     0.070200000000     0.702500000000    -0.456      
C        C      0.177900000000     0.615000000000     0.177900000000    -0.456      
C        C      0.202500000000     0.570200000000     0.202500000000    -0.456      
C        C      0.822100000000     0.115000000000     0.322100000000    -0.456      
C        C      0.797500000000     0.070200000000     0.297500000000    -0.456      
C        C      0.822100000000     0.615000000000     0.822100000000    -0.456      
C        C      0.797500000000     0.570200000000     0.797500000000    -0.456      
C        C      0.322100000000     0.615000000000     0.322100000000    -0.456      
C        C      0.297500000000     0.570200000000     0.297500000000    -0.456      
C        C      0.177900000000     0.322100000000     0.115000000000    -0.456      
C        C      0.202500000000     0.297500000000     0.070200000000    -0.456      
C        C      0.177900000000     0.822100000000     0.615000000000    -0.456      
C        C      0.202500000000     0.797500000000     0.570200000000    -0.456      
C        C      0.822100000000     0.677900000000     0.115000000000    -0.456      
C        C      0.797500000000     0.702500000000     0.070200000000    -0.456      
C        C      0.822100000000     0.177900000000     0.615000000000    -0.456      
C        C      0.797500000000     0.202500000000     0.570200000000    -0.456      
C        C      0.322100000000     0.177900000000     0.115000000000    -0.456      
C        C      0.297500000000     0.202500000000     0.070200000000    -0.456      
C        C      0.177900000000     0.677900000000     0.885000000000    -0.456      
C        C      0.202500000000     0.702500000000     0.929800000000    -0.456      
C        C      0.177900000000     0.177900000000     0.385000000000    -0.456      
C        C      0.202500000000     0.202500000000     0.429800000000    -0.456      
C        C      0.822100000000     0.322100000000     0.885000000000    -0.456      
C        C      0.797500000000     0.297500000000     0.929800000000    -0.456      
C        C      0.822100000000     0.822100000000     0.385000000000    -0.456      
C        C      0.797500000000     0.797500000000     0.429800000000    -0.456      
C        C      0.322100000000     0.322100000000     0.385000000000    -0.456      
C        C      0.297500000000     0.297500000000     0.429800000000    -0.456      
C        C      0.322100000000     0.885000000000     0.822100000000    -0.456      
C        C      0.297500000000     0.929800000000     0.797500000000    -0.456      
C        C      0.322100000000     0.385000000000     0.322100000000    -0.456      
C        C      0.297500000000     0.429800000000     0.297500000000    -0.456      
C        C      0.677900000000     0.885000000000     0.177900000000    -0.456      
C        C      0.702500000000     0.929800000000     0.202500000000    -0.456      
C        C      0.677900000000     0.385000000000     0.677900000000    -0.456      
C        C      0.702500000000     0.429800000000     0.702500000000    -0.456      
C        C      0.177900000000     0.385000000000     0.177900000000    -0.456      
C        C      0.202500000000     0.429800000000     0.202500000000    -0.456      
C        C      0.677900000000     0.115000000000     0.822100000000    -0.456      
C        C      0.702500000000     0.070200000000     0.797500000000    -0.456      
C        C      0.677900000000     0.615000000000     0.322100000000    -0.456      
C        C      0.702500000000     0.570200000000     0.297500000000    -0.456      
C        C      0.177900000000     0.115000000000     0.322100000000    -0.456      
C        C      0.202500000000     0.070200000000     0.297500000000    -0.456      
C        C      0.322100000000     0.115000000000     0.177900000000    -0.456      
C        C      0.297500000000     0.070200000000     0.202500000000    -0.456      
C        C      0.322100000000     0.615000000000     0.677900000000    -0.456      
C        C      0.297500000000     0.570200000000     0.702500000000    -0.456      
C        C      0.885000000000     0.177900000000     0.677900000000    -0.456      
C        C      0.929800000000     0.202500000000     0.702500000000    -0.456      
C        C      0.385000000000     0.177900000000     0.177900000000    -0.456      
C        C      0.429800000000     0.202500000000     0.202500000000    -0.456      
C        C      0.885000000000     0.822100000000     0.322100000000    -0.456      
C        C      0.929800000000     0.797500000000     0.297500000000    -0.456      
C        C      0.385000000000     0.822100000000     0.822100000000    -0.456      
C        C      0.429800000000     0.797500000000     0.797500000000    -0.456      
C        C      0.385000000000     0.322100000000     0.322100000000    -0.456      
C        C      0.429800000000     0.297500000000     0.297500000000    -0.456      
C        C      0.115000000000     0.177900000000     0.322100000000    -0.456      
C        C      0.070200000000     0.202500000000     0.297500000000    -0.456      
C        C      0.615000000000     0.177900000000     0.822100000000    -0.456      
C        C      0.570200000000     0.202500000000     0.797500000000    -0.456      
C        C      0.115000000000     0.822100000000     0.677900000000    -0.456      
C        C      0.070200000000     0.797500000000     0.702500000000    -0.456      
C        C      0.115000000000     0.322100000000     0.177900000000    -0.456      
C        C      0.070200000000     0.297500000000     0.202500000000    -0.456      
C        C      0.615000000000     0.822100000000     0.177900000000    -0.456      
C        C      0.570200000000     0.797500000000     0.202500000000    -0.456      
C        C      0.677900000000     0.822100000000     0.115000000000    -0.456      
C        C      0.702500000000     0.797500000000     0.070200000000    -0.456      
C        C      0.677900000000     0.322100000000     0.615000000000    -0.456      
C        C      0.702500000000     0.297500000000     0.570200000000    -0.456      
C        C      0.322100000000     0.677900000000     0.615000000000    -0.456      
C        C      0.297500000000     0.702500000000     0.570200000000    -0.456      
C        C      0.322100000000     0.822100000000     0.885000000000    -0.456      
C        C      0.297500000000     0.797500000000     0.929800000000    -0.456      
C        C      0.677900000000     0.177900000000     0.885000000000    -0.456      
C        C      0.702500000000     0.202500000000     0.929800000000    -0.456      
C        C      0.677900000000     0.677900000000     0.385000000000    -0.456      
C        C      0.702500000000     0.702500000000     0.429800000000    -0.456      
C        C      0.115000000000     0.677900000000     0.822100000000    -0.456      
C        C      0.070200000000     0.702500000000     0.797500000000    -0.456      
C        C      0.615000000000     0.677900000000     0.322100000000    -0.456      
C        C      0.570200000000     0.702500000000     0.297500000000    -0.456      
C        C      0.615000000000     0.322100000000     0.677900000000    -0.456      
C        C      0.570200000000     0.297500000000     0.702500000000    -0.456      
C        C      0.885000000000     0.322100000000     0.822100000000    -0.456      
C        C      0.929800000000     0.297500000000     0.797500000000    -0.456      
C        C      0.885000000000     0.677900000000     0.177900000000    -0.456      
C        C      0.929800000000     0.702500000000     0.202500000000    -0.456      
C        C      0.385000000000     0.677900000000     0.677900000000    -0.456      
C        C      0.429800000000     0.702500000000     0.702500000000    -0.456      
C        C      0.822100000000     0.115000000000     0.677900000000    -0.456      
C        C      0.797500000000     0.070200000000     0.702500000000    -0.456      
C        C      0.822100000000     0.615000000000     0.177900000000    -0.456      
C        C      0.797500000000     0.570200000000     0.202500000000    -0.456      
C        C      0.177900000000     0.615000000000     0.822100000000    -0.456      
C        C      0.202500000000     0.570200000000     0.797500000000    -0.456      
C        C      0.822100000000     0.885000000000     0.322100000000    -0.456      
C        C      0.797500000000     0.929800000000     0.297500000000    -0.456      
C        C      0.822100000000     0.385000000000     0.822100000000    -0.456      
C        C      0.797500000000     0.429800000000     0.797500000000    -0.456      
C        C      0.177900000000     0.885000000000     0.677900000000    -0.456      
C        C      0.202500000000     0.929800000000     0.702500000000    -0.456      
C        C      0.822100000000     0.677900000000     0.885000000000    -0.456      
C        C      0.797500000000     0.702500000000     0.929800000000    -0.456      
C        C      0.822100000000     0.177900000000     0.385000000000    -0.456      
C        C      0.797500000000     0.202500000000     0.429800000000    -0.456      
C        C      0.177900000000     0.822100000000     0.385000000000    -0.456      
C        C      0.202500000000     0.797500000000     0.429800000000    -0.456      
C        C      0.822100000000     0.322100000000     0.115000000000    -0.456      
C        C      0.797500000000     0.297500000000     0.070200000000    -0.456      
C        C      0.822100000000     0.822100000000     0.615000000000    -0.456      
C        C      0.797500000000     0.797500000000     0.570200000000    -0.456      
C        C      0.177900000000     0.677900000000     0.115000000000    -0.456      
C        C      0.202500000000     0.702500000000     0.070200000000    -0.456      
C        C      0.677900000000     0.115000000000     0.177900000000    -0.456      
C        C      0.702500000000     0.070200000000     0.202500000000    -0.456      
C        C      0.677900000000     0.615000000000     0.677900000000    -0.456      
C        C      0.702500000000     0.570200000000     0.702500000000    -0.456      
C        C      0.322100000000     0.115000000000     0.822100000000    -0.456      
C        C      0.297500000000     0.070200000000     0.797500000000    -0.456      
C        C      0.322100000000     0.385000000000     0.677900000000    -0.456      
C        C      0.297500000000     0.429800000000     0.702500000000    -0.456      
C        C      0.677900000000     0.885000000000     0.822100000000    -0.456      
C        C      0.702500000000     0.929800000000     0.797500000000    -0.456      
C        C      0.677900000000     0.385000000000     0.322100000000    -0.456      
C        C      0.702500000000     0.429800000000     0.297500000000    -0.456      
C        C      0.115000000000     0.822100000000     0.322100000000    -0.456      
C        C      0.070200000000     0.797500000000     0.297500000000    -0.456      
C        C      0.615000000000     0.822100000000     0.822100000000    -0.456      
C        C      0.570200000000     0.797500000000     0.797500000000    -0.456      
C        C      0.115000000000     0.177900000000     0.677900000000    -0.456      
C        C      0.070200000000     0.202500000000     0.702500000000    -0.456      
C        C      0.885000000000     0.822100000000     0.677900000000    -0.456      
C        C      0.929800000000     0.797500000000     0.702500000000    -0.456      
C        C      0.385000000000     0.822100000000     0.177900000000    -0.456      
C        C      0.429800000000     0.797500000000     0.202500000000    -0.456      
C        C      0.385000000000     0.177900000000     0.822100000000    -0.456      
C        C      0.429800000000     0.202500000000     0.797500000000    -0.456      
C        C      0.301200000000     0.136300000000     0.863700000000    -0.456      
C        C      0.301200000000     0.636300000000     0.363700000000    -0.456      
C        C      0.801200000000     0.136300000000     0.363700000000    -0.456      
C        C      0.801200000000     0.636300000000     0.863700000000    -0.456      
C        C      0.698800000000     0.863700000000     0.863700000000    -0.456      
C        C      0.698800000000     0.363700000000     0.363700000000    -0.456      
C        C      0.198800000000     0.863700000000     0.363700000000    -0.456      
C        C      0.198800000000     0.363700000000     0.863700000000    -0.456      
C        C      0.698800000000     0.136300000000     0.136300000000    -0.456      
C        C      0.698800000000     0.636300000000     0.636300000000    -0.456      
C        C      0.198800000000     0.136300000000     0.636300000000    -0.456      
C        C      0.198800000000     0.636300000000     0.136300000000    -0.456      
C        C      0.301200000000     0.863700000000     0.136300000000    -0.456      
C        C      0.301200000000     0.363700000000     0.636300000000    -0.456      
C        C      0.801200000000     0.863700000000     0.636300000000    -0.456      
C        C      0.801200000000     0.363700000000     0.136300000000    -0.456      
C        C      0.863700000000     0.301200000000     0.136300000000    -0.456      
C        C      0.863700000000     0.801200000000     0.636300000000    -0.456      
C        C      0.363700000000     0.301200000000     0.636300000000    -0.456      
C        C      0.363700000000     0.801200000000     0.136300000000    -0.456      
C        C      0.863700000000     0.698800000000     0.863700000000    -0.456      
C        C      0.863700000000     0.198800000000     0.363700000000    -0.456      
C        C      0.363700000000     0.698800000000     0.363700000000    -0.456      
C        C      0.363700000000     0.198800000000     0.863700000000    -0.456      
C        C      0.136300000000     0.698800000000     0.136300000000    -0.456      
C        C      0.136300000000     0.198800000000     0.636300000000    -0.456      
C        C      0.636300000000     0.698800000000     0.636300000000    -0.456      
C        C      0.636300000000     0.198800000000     0.136300000000    -0.456      
C        C      0.136300000000     0.301200000000     0.863700000000    -0.456      
C        C      0.136300000000     0.801200000000     0.363700000000    -0.456      
C        C      0.636300000000     0.301200000000     0.363700000000    -0.456      
C        C      0.636300000000     0.801200000000     0.863700000000    -0.456      
C        C      0.136300000000     0.863700000000     0.301200000000    -0.456      
C        C      0.136300000000     0.363700000000     0.801200000000    -0.456      
C        C      0.636300000000     0.863700000000     0.801200000000    -0.456      
C        C      0.636300000000     0.363700000000     0.301200000000    -0.456      
C        C      0.863700000000     0.863700000000     0.698800000000    -0.456      
C        C      0.863700000000     0.363700000000     0.198800000000    -0.456      
C        C      0.363700000000     0.863700000000     0.198800000000    -0.456      
C        C      0.363700000000     0.363700000000     0.698800000000    -0.456      
C        C      0.136300000000     0.136300000000     0.698800000000    -0.456      
C        C      0.136300000000     0.636300000000     0.198800000000    -0.456      
C        C      0.636300000000     0.136300000000     0.198800000000    -0.456      
C        C      0.636300000000     0.636300000000     0.698800000000    -0.456      
C        C      0.863700000000     0.136300000000     0.301200000000    -0.456      
C        C      0.863700000000     0.636300000000     0.801200000000    -0.456      
C        C      0.363700000000     0.136300000000     0.801200000000    -0.456      
C        C      0.363700000000     0.636300000000     0.301200000000    -0.456      
C        C      0.136300000000     0.301200000000     0.136300000000    -0.456      
C        C      0.136300000000     0.801200000000     0.636300000000    -0.456      
C        C      0.636300000000     0.301200000000     0.636300000000    -0.456      
C        C      0.636300000000     0.801200000000     0.136300000000    -0.456      
C        C      0.863700000000     0.698800000000     0.136300000000    -0.456      
C        C      0.863700000000     0.198800000000     0.636300000000    -0.456      
C        C      0.363700000000     0.698800000000     0.636300000000    -0.456      
C        C      0.363700000000     0.198800000000     0.136300000000    -0.456      
C        C      0.136300000000     0.698800000000     0.863700000000    -0.456      
C        C      0.136300000000     0.198800000000     0.363700000000    -0.456      
C        C      0.636300000000     0.698800000000     0.363700000000    -0.456      
C        C      0.636300000000     0.198800000000     0.863700000000    -0.456      
C        C      0.863700000000     0.301200000000     0.863700000000    -0.456      
C        C      0.863700000000     0.801200000000     0.363700000000    -0.456      
C        C      0.363700000000     0.301200000000     0.363700000000    -0.456      
C        C      0.363700000000     0.801200000000     0.863700000000    -0.456      
C        C      0.301200000000     0.863700000000     0.863700000000    -0.456      
C        C      0.301200000000     0.363700000000     0.363700000000    -0.456      
C        C      0.801200000000     0.863700000000     0.363700000000    -0.456      
C        C      0.801200000000     0.363700000000     0.863700000000    -0.456      
C        C      0.698800000000     0.863700000000     0.136300000000    -0.456      
C        C      0.698800000000     0.363700000000     0.636300000000    -0.456      
C        C      0.198800000000     0.863700000000     0.636300000000    -0.456      
C        C      0.198800000000     0.363700000000     0.136300000000    -0.456      
C        C      0.698800000000     0.136300000000     0.863700000000    -0.456      
C        C      0.698800000000     0.636300000000     0.363700000000    -0.456      
C        C      0.198800000000     0.136300000000     0.363700000000    -0.456      
C        C      0.198800000000     0.636300000000     0.863700000000    -0.456      
C        C      0.301200000000     0.136300000000     0.136300000000    -0.456      
C        C      0.301200000000     0.636300000000     0.636300000000    -0.456      
C        C      0.801200000000     0.136300000000     0.636300000000    -0.456      
C        C      0.801200000000     0.636300000000     0.136300000000    -0.456      
C        C      0.863700000000     0.136300000000     0.698800000000    -0.456      
C        C      0.863700000000     0.636300000000     0.198800000000    -0.456      
C        C      0.363700000000     0.136300000000     0.198800000000    -0.456      
C        C      0.363700000000     0.636300000000     0.698800000000    -0.456      
C        C      0.863700000000     0.863700000000     0.301200000000    -0.456      
C        C      0.863700000000     0.363700000000     0.801200000000    -0.456      
C        C      0.363700000000     0.863700000000     0.801200000000    -0.456      
C        C      0.363700000000     0.363700000000     0.301200000000    -0.456      
C        C      0.136300000000     0.136300000000     0.301200000000    -0.456      
C        C      0.136300000000     0.636300000000     0.801200000000    -0.456      
C        C      0.636300000000     0.136300000000     0.801200000000    -0.456      
C        C      0.636300000000     0.636300000000     0.301200000000    -0.456      
C        C      0.136300000000     0.863700000000     0.698800000000    -0.456      
C        C      0.136300000000     0.363700000000     0.198800000000    -0.456      
C        C      0.636300000000     0.863700000000     0.198800000000    -0.456      
C        C      0.636300000000     0.363700000000     0.698800000000    -0.456      
H        H      0.271800000000     0.121700000000     0.878300000000    -0.465      
H        H      0.271800000000     0.621700000000     0.378300000000    -0.465      
H        H      0.771800000000     0.121700000000     0.378300000000    -0.465      
H        H      0.771800000000     0.621700000000     0.878300000000    -0.465      
H        H      0.728200000000     0.878300000000     0.878300000000    -0.465      
H        H      0.728200000000     0.378300000000     0.378300000000    -0.465      
H        H      0.228200000000     0.878300000000     0.378300000000    -0.465      
H        H      0.228200000000     0.378300000000     0.878300000000    -0.465      
H        H      0.728200000000     0.121700000000     0.121700000000    -0.465      
H        H      0.728200000000     0.621700000000     0.621700000000    -0.465      
H        H      0.228200000000     0.121700000000     0.621700000000    -0.465      
H        H      0.228200000000     0.621700000000     0.121700000000    -0.465      
H        H      0.271800000000     0.878300000000     0.121700000000    -0.465      
H        H      0.271800000000     0.378300000000     0.621700000000    -0.465      
H        H      0.771800000000     0.878300000000     0.621700000000    -0.465      
H        H      0.771800000000     0.378300000000     0.121700000000    -0.465      
H        H      0.878300000000     0.271800000000     0.121700000000    -0.465      
H        H      0.878300000000     0.771800000000     0.621700000000    -0.465      
H        H      0.378300000000     0.271800000000     0.621700000000    -0.465      
H        H      0.378300000000     0.771800000000     0.121700000000    -0.465      
H        H      0.878300000000     0.728200000000     0.878300000000    -0.465      
H        H      0.878300000000     0.228200000000     0.378300000000    -0.465      
H        H      0.378300000000     0.728200000000     0.378300000000    -0.465      
H        H      0.378300000000     0.228200000000     0.878300000000    -0.465      
H        H      0.121700000000     0.728200000000     0.121700000000    -0.465      
H        H      0.121700000000     0.228200000000     0.621700000000    -0.465      
H        H      0.621700000000     0.728200000000     0.621700000000    -0.465      
H        H      0.621700000000     0.228200000000     0.121700000000    -0.465      
H        H      0.121700000000     0.271800000000     0.878300000000    -0.465      
H        H      0.121700000000     0.771800000000     0.378300000000    -0.465      
H        H      0.621700000000     0.271800000000     0.378300000000    -0.465      
H        H      0.621700000000     0.771800000000     0.878300000000    -0.465      
H        H      0.121700000000     0.878300000000     0.271800000000    -0.465      
H        H      0.121700000000     0.378300000000     0.771800000000    -0.465      
H        H      0.621700000000     0.878300000000     0.771800000000    -0.465      
H        H      0.621700000000     0.378300000000     0.271800000000    -0.465      
H        H      0.878300000000     0.878300000000     0.728200000000    -0.465      
H        H      0.878300000000     0.378300000000     0.228200000000    -0.465      
H        H      0.378300000000     0.878300000000     0.228200000000    -0.465      
H        H      0.378300000000     0.378300000000     0.728200000000    -0.465      
H        H      0.121700000000     0.121700000000     0.728200000000    -0.465      
H        H      0.121700000000     0.621700000000     0.228200000000    -0.465      
H        H      0.621700000000     0.121700000000     0.228200000000    -0.465      
H        H      0.621700000000     0.621700000000     0.728200000000    -0.465      
H        H      0.878300000000     0.121700000000     0.271800000000    -0.465      
H        H      0.878300000000     0.621700000000     0.771800000000    -0.465      
H        H      0.378300000000     0.121700000000     0.771800000000    -0.465      
H        H      0.378300000000     0.621700000000     0.271800000000    -0.465      
H        H      0.121700000000     0.271800000000     0.121700000000    -0.465      
H        H      0.121700000000     0.771800000000     0.621700000000    -0.465      
H        H      0.621700000000     0.271800000000     0.621700000000    -0.465      
H        H      0.621700000000     0.771800000000     0.121700000000    -0.465      
H        H      0.878300000000     0.728200000000     0.121700000000    -0.465      
H        H      0.878300000000     0.228200000000     0.621700000000    -0.465      
H        H      0.378300000000     0.728200000000     0.621700000000    -0.465      
H        H      0.378300000000     0.228200000000     0.121700000000    -0.465      
H        H      0.121700000000     0.728200000000     0.878300000000    -0.465      
H        H      0.121700000000     0.228200000000     0.378300000000    -0.465      
H        H      0.621700000000     0.728200000000     0.378300000000    -0.465      
H        H      0.621700000000     0.228200000000     0.878300000000    -0.465      
H        H      0.878300000000     0.271800000000     0.878300000000    -0.465      
H        H      0.878300000000     0.771800000000     0.378300000000    -0.465      
H        H      0.378300000000     0.271800000000     0.378300000000    -0.465      
H        H      0.378300000000     0.771800000000     0.878300000000    -0.465      
H        H      0.271800000000     0.878300000000     0.878300000000    -0.465      
H        H      0.271800000000     0.378300000000     0.378300000000    -0.465      
H        H      0.771800000000     0.878300000000     0.378300000000    -0.465      
H        H      0.771800000000     0.378300000000     0.878300000000    -0.465      
H        H      0.728200000000     0.878300000000     0.121700000000    -0.465      
H        H      0.728200000000     0.378300000000     0.621700000000    -0.465      
H        H      0.228200000000     0.878300000000     0.621700000000    -0.465      
H        H      0.228200000000     0.378300000000     0.121700000000    -0.465      
H        H      0.728200000000     0.121700000000     0.878300000000    -0.465      
H        H      0.728200000000     0.621700000000     0.378300000000    -0.465      
H        H      0.228200000000     0.121700000000     0.378300000000    -0.465      
H        H      0.228200000000     0.621700000000     0.878300000000    -0.465      
H        H      0.271800000000     0.121700000000     0.121700000000    -0.465      
H        H      0.271800000000     0.621700000000     0.621700000000    -0.465      
H        H      0.771800000000     0.121700000000     0.621700000000    -0.465      
H        H      0.771800000000     0.621700000000     0.121700000000    -0.465      
H        H      0.878300000000     0.121700000000     0.728200000000    -0.465      
H        H      0.878300000000     0.621700000000     0.228200000000    -0.465      
H        H      0.378300000000     0.121700000000     0.228200000000    -0.465      
H        H      0.378300000000     0.621700000000     0.728200000000    -0.465      
H        H      0.878300000000     0.878300000000     0.271800000000    -0.465      
H        H      0.878300000000     0.378300000000     0.771800000000    -0.465      
H        H      0.378300000000     0.878300000000     0.771800000000    -0.465      
H        H      0.378300000000     0.378300000000     0.271800000000    -0.465      
H        H      0.121700000000     0.121700000000     0.271800000000    -0.465      
H        H      0.121700000000     0.621700000000     0.771800000000    -0.465      
H        H      0.621700000000     0.121700000000     0.771800000000    -0.465      
H        H      0.621700000000     0.621700000000     0.271800000000    -0.465      
H        H      0.121700000000     0.878300000000     0.728200000000    -0.465      
H        H      0.121700000000     0.378300000000     0.228200000000    -0.465      
H        H      0.621700000000     0.878300000000     0.228200000000    -0.465      
H        H      0.621700000000     0.378300000000     0.728200000000    -0.465      


