data_crystal

_cell_length_a 21.16340
_cell_length_b 29.35180
_cell_length_c 29.35180
_cell_angle_alpha 120.00000
_cell_angle_beta  90.00000
_cell_angle_gamma 90.00000

_symmetry_space_group_name_	'P 1'
_symmetry_space_group_name_H-M	'P 1'

loop_
_symmetry_equiv_pos_as_xyz
  x,y,z

loop_
_atom_site_label
_atom_site_type_symbol
_atom_site_fract_x
_atom_site_fract_y
_atom_site_fract_z
_atom_site_charge
Y 	Y 	0.50000 0.49080 0.74540 2.76400
Y 	Y 	0.40870 0.37674 0.75348 2.81100
Y 	Y 	0.40870 0.75348 0.37674 2.37700
Y 	Y 	0.90878 0.28977 0.57954 2.41100
Y 	Y 	0.59130 0.37674 0.75348 2.33300
Y 	Y 	0.50000 0.07884 0.92116 2.54800
Y 	Y 	0.90878 0.71023 0.28978 2.38600
Y 	Y 	0.40870 0.24652 0.62326 2.37300
Y 	Y 	0.59130 0.75348 0.37674 2.65000
Y 	Y 	0.00000 0.41204 0.82408 2.42800
Y 	Y 	0.50000 0.74540 0.25460 2.84700
Y 	Y 	0.40870 0.37674 0.62326 2.25100
Y 	Y 	0.74210 0.66667 0.33334 2.44500
Y 	Y 	0.25790 0.33333 0.66666 2.44800
Y 	Y 	-0.00000 0.41204 0.58796 2.42100
Y 	Y 	0.00000 0.58796 0.17592 2.44200
Y 	Y 	0.00000 0.82408 0.41204 2.43800
Y 	Y 	0.00000 0.17592 0.58796 2.41900
Y 	Y 	0.40870 0.62326 0.37674 2.25100
Y 	Y 	0.50000 0.15768 0.07884 2.47300
Y 	Y 	0.90878 0.57955 0.28978 2.38900
Y 	Y 	0.90878 0.28977 0.71022 2.39400
Y 	Y 	0.09122 0.28977 0.57954 2.39300
Y 	Y 	0.50000 0.25460 0.74540 2.87900
Y 	Y 	0.09122 0.71023 0.42046 2.39300
Y 	Y 	0.90878 0.42045 0.71022 2.39700
Y 	Y 	0.50000 0.50920 0.25460 2.79600
Y 	Y 	0.50000 0.25460 0.50920 2.68100
Y 	Y 	0.74210 0.33333 0.66666 2.44500
Y 	Y 	0.50000 0.92116 0.84232 2.49000
Y 	Y 	0.59130 0.62326 0.37674 2.67200
Y 	Y 	0.40870 0.62326 0.24652 2.80800
Y 	Y 	0.25790 0.66667 0.33334 2.44800
Y 	Y 	0.50000 0.92116 0.07884 2.56400
Y 	Y 	0.00000 0.58796 0.41204 2.42600
Y 	Y 	0.09122 0.71023 0.28978 2.41000
Y 	Y 	0.50000 0.84232 0.92116 2.51100
Y 	Y 	0.59130 0.37674 0.62326 2.67200
Y 	Y 	0.50000 0.07884 0.15768 2.42000
Y 	Y 	0.50000 0.74540 0.49080 2.68100
Y 	Y 	0.09122 0.42045 0.71022 2.40700
Y 	Y 	0.90878 0.71023 0.42046 2.40500
Y 	Y 	0.59130 0.62326 0.24652 2.33200
Y 	Y 	0.59130 0.24652 0.62326 2.64800
Y 	Y 	0.09122 0.28977 0.71022 2.40900
Y 	Y 	0.09122 0.57955 0.28978 2.40600
H 	H 	0.76950 0.27600 0.05370 4.47100
H 	H 	0.19950 0.73040 0.17150 4.87600
H 	H 	0.64860 0.32710 0.03690 -61.63900
H 	H 	0.39210 0.72980 0.77770 65.31300
H 	H 	0.24670 0.89290 0.25440 0.51400
H 	H 	0.75330 0.74560 0.10710 4.12400
H 	H 	0.22160 0.34790 0.24050 -3.91000
H 	H 	0.20720 0.20870 0.25830 -79.32700
H 	H 	0.71420 0.63700 0.64870 -442.69600
H 	H 	0.77840 0.10740 0.34790 2.05600
H 	H 	0.08160 0.44210 0.05640 -42.28800
H 	H 	0.71420 0.01170 0.36300 -361.93900
H 	H 	0.10300 0.39370 0.94190 45.30200
H 	H 	0.26710 0.42270 0.98240 184.70800
H 	H 	0.60790 0.27020 0.22230 -120.70700
H 	H 	0.35140 0.67290 0.70980 -143.41600
H 	H 	0.08160 0.94360 0.38570 -0.39500
H 	H 	0.64860 0.32710 0.29020 250.69400
H 	H 	0.39820 0.88520 0.27710 -0.40600
H 	H 	0.71420 0.36300 0.01170 106.97800
H 	H 	0.29940 0.84000 0.78680 64.79800
H 	H 	0.35140 0.32710 0.03690 399.58700
H 	H 	0.89700 0.39370 0.45180 28.35500
H 	H 	0.79280 0.25830 0.04960 -38.76800
H 	H 	0.60790 0.77770 0.72980 -122.39700
H 	H 	0.17630 0.74170 0.57160 0.68100
H 	H 	0.31390 0.09550 0.59040 -21.17100
H 	H 	0.82370 0.25830 0.42840 -3.69300
H 	H 	0.65440 0.70510 0.04450 25.52900
H 	H 	0.68170 0.04910 0.33060 100.19000
H 	H 	0.70060 0.84000 0.05320 28.73100
H 	H 	0.79280 0.20870 0.95040 -38.91200
H 	H 	0.19950 0.55890 0.73040 0.02200
H 	H 	0.91840 0.44210 0.38570 -26.93000
H 	H 	0.31830 0.95090 0.28150 0.99500
H 	H 	0.58970 0.72100 0.77450 128.01800
H 	H 	0.71420 0.01170 0.64870 -448.45400
H 	H 	0.60790 0.72980 0.95210 22.01600
H 	H 	0.41030 0.77450 0.05350 191.01600
H 	H 	0.17630 0.42840 0.17010 -4.39900
H 	H 	0.60790 0.04790 0.77770 -128.56600
H 	H 	0.76950 0.27600 0.22230 -11.33800
H 	H 	0.41030 0.72100 0.77450 -71.50400
H 	H 	0.10300 0.94190 0.54820 -4.80400
H 	H 	0.22160 0.65210 0.75950 -3.78500
H 	H 	0.82370 0.82990 0.57160 -3.81100
H 	H 	0.34560 0.04450 0.70510 21.67500
H 	H 	0.39820 0.27710 0.39190 -45.61600
H 	H 	0.89700 0.05810 0.45180 23.39500
H 	H 	0.26710 0.44030 0.42270 -63.55500
H 	H 	0.29940 0.78680 0.84000 67.50500
H 	H 	0.60180 0.39190 0.11480 -20.51500
H 	H 	0.39820 0.60810 0.88520 116.51300
H 	H 	0.70060 0.94680 0.78680 -116.72800
H 	H 	0.70060 0.78680 0.94680 29.29300
H 	H 	0.60180 0.60810 0.72290 78.90400
H 	H 	0.22160 0.89260 0.65210 -1.15100
H 	H 	0.39210 0.77770 0.72980 66.27600
H 	H 	0.64860 0.03690 0.70980 257.93600
H 	H 	0.80050 0.17150 0.44110 3.72800
H 	H 	0.22160 0.89260 0.24050 -1.63900
H 	H 	0.31390 0.90450 0.40960 -4.93600
H 	H 	0.70060 0.05320 0.21320 -92.38000
H 	H 	0.77840 0.24050 0.34790 2.56900
H 	H 	0.31390 0.50510 0.09550 179.24200
H 	H 	0.31830 0.95090 0.66940 -23.20700
H 	H 	0.68610 0.50510 0.40960 114.06400
H 	H 	0.89700 0.05810 0.60630 28.74800
H 	H 	0.35140 0.67290 0.96310 367.82800
H 	H 	0.23050 0.94630 0.72400 2.38200
H 	H 	0.77840 0.24050 0.89260 -2.72500
H 	H 	0.28580 0.01170 0.36300 -1.88400
H 	H 	0.10300 0.60630 0.54820 -15.57000
H 	H 	0.79280 0.20870 0.25830 142.84400
H 	H 	0.19950 0.82850 0.55890 0.77300
H 	H 	0.60180 0.11480 0.39190 64.75900
H 	H 	0.41030 0.27900 0.22550 -69.57700
H 	H 	0.08160 0.05640 0.61430 4.51100
H 	H 	0.29940 0.21320 0.05320 -188.23600
H 	H 	0.23050 0.77770 0.72400 7.52600
H 	H 	0.08160 0.05640 0.44210 -0.30800
H 	H 	0.28580 0.64870 0.01170 -640.62700
H 	H 	0.70060 0.94680 0.16000 -97.90500
H 	H 	0.79280 0.04960 0.79130 145.59500
H 	H 	0.17630 0.25830 0.82990 -4.96400
H 	H 	0.17630 0.82990 0.57160 -0.69300
H 	H 	0.41030 0.22550 0.94650 208.78800
H 	H 	0.68610 0.49490 0.59040 114.64200
H 	H 	0.10300 0.54820 0.94190 41.50000
H 	H 	0.82370 0.74170 0.57160 -3.69500
H 	H 	0.24670 0.74560 0.63850 8.15300
H 	H 	0.35140 0.29020 0.32710 -138.18900
H 	H 	0.41030 0.77450 0.72100 -72.07800
H 	H 	0.68170 0.28150 0.95090 -28.75200
H 	H 	0.82370 0.42840 0.17010 -1.28900
H 	H 	0.39210 0.22230 0.95210 -199.73900
H 	H 	0.64860 0.67290 0.96310 -62.01900
H 	H 	0.58970 0.27900 0.05350 -26.54700
H 	H 	0.76950 0.05370 0.27600 -8.92600
H 	H 	0.34560 0.95550 0.29490 -1.81900
H 	H 	0.27770 0.80380 0.85000 -73.31200
H 	H 	0.72230 0.04620 0.85000 127.63600
H 	H 	0.10300 0.45180 0.39370 -14.86800
H 	H 	0.23050 0.72400 0.77770 4.26600
H 	H 	0.17630 0.25830 0.42840 0.49200
H 	H 	0.70060 0.16000 0.21320 -118.83300
H 	H 	0.75330 0.74560 0.63850 -13.13800
H 	H 	0.64860 0.29020 0.96310 -61.66000
H 	H 	0.41030 0.27900 0.05350 209.72700
H 	H 	0.29940 0.16000 0.21320 62.91900
H 	H 	0.60180 0.88520 0.27710 65.30200
H 	H 	0.20720 0.79130 0.04960 203.65900
H 	H 	0.17630 0.57160 0.82990 -4.54700
H 	H 	0.31390 0.50510 0.40960 -65.90500
H 	H 	0.77840 0.34790 0.10740 -2.60100
H 	H 	0.29940 0.84000 0.05320 -164.64700
H 	H 	0.60180 0.27710 0.39190 80.17800
H 	H 	0.34560 0.04450 0.33940 -2.84800
H 	H 	0.71420 0.64870 0.01170 107.64400
H 	H 	0.35140 0.29020 0.96310 397.47200
H 	H 	0.80050 0.17150 0.73040 3.09600
H 	H 	0.58970 0.05350 0.77450 134.57100
H 	H 	0.39820 0.60810 0.72290 -46.75100
H 	H 	0.08160 0.55790 0.61430 14.50700
H 	H 	0.64860 0.70980 0.67290 254.11200
H 	H 	0.70060 0.16000 0.94680 29.17300
H 	H 	0.68610 0.49490 0.90450 -30.20600
H 	H 	0.29940 0.05320 0.84000 22.33800
H 	H 	0.10300 0.60630 0.05810 41.49400
H 	H 	0.89700 0.94190 0.54820 29.25800
H 	H 	0.89700 0.45180 0.39370 28.46500
H 	H 	0.89700 0.45180 0.05810 -6.43300
H 	H 	0.68170 0.33060 0.04910 -27.82200
H 	H 	0.23050 0.22230 0.27600 7.35400
H 	H 	0.76950 0.77770 0.72400 -6.65700
H 	H 	0.28580 0.63700 0.98830 -635.39900
H 	H 	0.72230 0.95380 0.80380 124.71500
H 	H 	0.72230 0.15000 0.19620 124.86400
H 	H 	0.89700 0.94190 0.39370 23.70200
H 	H 	0.31830 0.71850 0.04910 176.70100
H 	H 	0.68170 0.95090 0.28150 101.19800
H 	H 	0.28580 0.64870 0.63700 249.81300
H 	H 	0.39210 0.72980 0.95210 -182.59200
H 	H 	0.60180 0.11480 0.72290 81.52500
H 	H 	0.26710 0.57730 0.55970 -65.73700
H 	H 	0.82370 0.25830 0.82990 -1.54900
H 	H 	0.19950 0.55890 0.82850 4.64600
H 	H 	0.10300 0.54820 0.60630 -15.29700
H 	H 	0.75330 0.25440 0.36150 -12.96800
H 	H 	0.26710 0.98240 0.55970 -21.66100
H 	H 	0.39210 0.95210 0.22230 -8.29900
H 	H 	0.91840 0.55790 0.94360 6.08000
H 	H 	0.29940 0.05320 0.21320 0.60700
H 	H 	0.10300 0.39370 0.45180 -15.13300
H 	H 	0.65440 0.66060 0.95550 24.53400
H 	H 	0.20720 0.04960 0.25830 -2.02700
H 	H 	0.24670 0.63850 0.89290 -19.02100
H 	H 	0.10300 0.05810 0.45180 0.08300
H 	H 	0.60790 0.95210 0.72980 -128.93700
H 	H 	0.91840 0.61430 0.55790 -26.90000
H 	H 	0.24670 0.74560 0.10710 -18.86900
H 	H 	0.24670 0.10710 0.74560 3.28300
H 	H 	0.23050 0.94630 0.22230 1.20000
H 	H 	0.60180 0.39190 0.27710 78.38300
H 	H 	0.89700 0.39370 0.94190 -6.07400
H 	H 	0.60790 0.22230 0.95210 20.86200
H 	H 	0.79280 0.95040 0.20870 116.69400
H 	H 	0.82370 0.57160 0.82990 -1.30800
H 	H 	0.64860 0.29020 0.32710 252.31500
H 	H 	0.71420 0.63700 0.98830 108.40300
H 	H 	0.68610 0.50510 0.09550 -30.46000
H 	H 	0.29940 0.94680 0.16000 -1.39300
H 	H 	0.23050 0.05370 0.77770 3.12700
H 	H 	0.77840 0.75950 0.65210 2.51900
H 	H 	0.26710 0.42270 0.44030 -63.63300
H 	H 	0.29940 0.94680 0.78680 23.19100
H 	H 	0.60790 0.72980 0.77770 -121.27900
H 	H 	0.26710 0.57730 0.01760 168.39400
H 	H 	0.08160 0.61430 0.55790 14.79500
H 	H 	0.77840 0.89260 0.65210 3.09000
H 	H 	0.75330 0.89290 0.25440 -10.00400
H 	H 	0.22160 0.24050 0.89260 6.55000
H 	H 	0.20720 0.95040 0.74170 -29.84300
H 	H 	0.79280 0.74170 0.95040 -38.69000
H 	H 	0.23050 0.72400 0.94630 -8.95500
H 	H 	0.24670 0.25440 0.36150 8.00000
H 	H 	0.75330 0.36150 0.25440 -12.69700
H 	H 	0.22160 0.24050 0.34790 -2.95700
H 	H 	0.68610 0.40960 0.50510 114.08800
H 	H 	0.39820 0.11480 0.39190 -1.99600
H 	H 	0.58970 0.77450 0.05350 -27.43800
H 	H 	0.73290 0.01760 0.44030 94.34700
H 	H 	0.27770 0.95380 0.80380 -25.23000
H 	H 	0.64860 0.96310 0.29020 207.93200
H 	H 	0.23050 0.05370 0.27600 2.02400
H 	H 	0.22160 0.75950 0.10740 5.81700
H 	H 	0.31390 0.49490 0.90450 169.26200
H 	H 	0.08160 0.61430 0.05640 -39.27200
H 	H 	0.31390 0.49490 0.59040 -67.33400
H 	H 	0.31390 0.40960 0.50510 -65.80600
H 	H 	0.17630 0.74170 0.17010 -4.91300
H 	H 	0.80050 0.55890 0.73040 3.31900
H 	H 	0.31390 0.40960 0.90450 179.47200
H 	H 	0.79280 0.25830 0.20870 139.88300
H 	H 	0.68170 0.33060 0.28150 120.71800
H 	H 	0.60180 0.72290 0.11480 -20.68500
H 	H 	0.27770 0.15000 0.95380 195.03700
H 	H 	0.73290 0.57730 0.01760 -29.09700
H 	H 	0.29940 0.16000 0.94680 -180.15000
H 	H 	0.76950 0.94630 0.22230 -4.75300
H 	H 	0.91840 0.44210 0.05640 5.95000
H 	H 	0.65440 0.66060 0.70510 -110.39700
H 	H 	0.31830 0.66940 0.71850 -68.92700
H 	H 	0.22160 0.75950 0.65210 -2.78900
H 	H 	0.39820 0.39190 0.27710 -45.17500
H 	H 	0.24670 0.25440 0.89290 -20.63700
H 	H 	0.10300 0.94190 0.39370 0.74700
H 	H 	0.31830 0.33060 0.04910 195.63100
H 	H 	0.41030 0.94650 0.72100 -21.54800
H 	H 	0.26710 0.98240 0.42270 1.39700
H 	H 	0.39210 0.95210 0.72980 17.83300
H 	H 	0.68610 0.40960 0.90450 -30.09800
H 	H 	0.20720 0.25830 0.04960 226.93700
H 	H 	0.71420 0.36300 0.35130 -439.51800
H 	H 	0.68610 0.59040 0.49490 114.65200
H 	H 	0.72230 0.19620 0.15000 122.36700
H 	H 	0.35140 0.96310 0.67290 -48.66800
H 	H 	0.28580 0.01170 0.64870 85.07400
H 	H 	0.31830 0.04910 0.33060 1.38000
H 	H 	0.20720 0.95040 0.20870 -1.66900
H 	H 	0.80050 0.73040 0.17150 1.03800
H 	H 	0.65440 0.29490 0.95550 24.34800
H 	H 	0.75330 0.10710 0.36150 -10.15300
H 	H 	0.31830 0.28150 0.33060 -65.76000
H 	H 	0.08160 0.94360 0.55790 4.88400
H 	H 	0.77840 0.65210 0.89260 -2.58400
H 	H 	0.75330 0.25440 0.89290 4.45900
H 	H 	0.19950 0.17150 0.44110 0.30300
H 	H 	0.31830 0.66940 0.95090 179.35100
H 	H 	0.31830 0.28150 0.95090 191.92900
H 	H 	0.17630 0.17010 0.42840 -0.30400
H 	H 	0.79280 0.95040 0.74170 142.66000
H 	H 	0.64860 0.70980 0.03690 -61.97800
H 	H 	0.08160 0.38570 0.44210 14.37500
H 	H 	0.60790 0.95210 0.22230 -104.02000
H 	H 	0.75330 0.63850 0.89290 4.33900
H 	H 	0.77840 0.10740 0.75950 3.71300
H 	H 	0.24670 0.36150 0.10710 -21.11200
H 	H 	0.39210 0.04790 0.77770 16.14400
H 	H 	0.82370 0.82990 0.25830 -3.56400
H 	H 	0.72230 0.15000 0.95380 -33.40700
H 	H 	0.65440 0.04450 0.70510 -109.00900
H 	H 	0.35140 0.03690 0.70980 -48.68800
H 	H 	0.64860 0.96310 0.67290 256.86800
H 	H 	0.68610 0.09550 0.50510 96.64900
H 	H 	0.27770 0.95380 0.15000 -1.31200
H 	H 	0.34560 0.70510 0.04450 -158.11100
H 	H 	0.75330 0.10710 0.74560 -13.42000
H 	H 	0.75330 0.36150 0.10710 4.18300
H 	H 	0.39820 0.72290 0.60810 -47.18300
H 	H 	0.60790 0.77770 0.04790 22.00500
H 	H 	0.80050 0.55890 0.82850 1.17400
H 	H 	0.41030 0.94650 0.22550 5.84400
H 	H 	0.31830 0.04910 0.71850 -22.07200
H 	H 	0.82370 0.42840 0.25830 -3.45200
H 	H 	0.72230 0.80380 0.85000 123.27800
H 	H 	0.58970 0.72100 0.94650 -27.34200
H 	H 	0.89700 0.54820 0.60630 28.59000
H 	H 	0.91840 0.55790 0.61430 -27.04300
H 	H 	0.41030 0.72100 0.94650 192.00600
H 	H 	0.20720 0.74170 0.95040 208.87700
H 	H 	0.65440 0.70510 0.66060 -105.48400
H 	H 	0.75330 0.63850 0.74560 -12.85300
H 	H 	0.28580 0.98830 0.63700 86.02300
H 	H 	0.80050 0.82850 0.26960 3.59700
H 	H 	0.73290 0.42270 0.44030 115.76000
H 	H 	0.82370 0.74170 0.17010 -1.17900
H 	H 	0.39820 0.11480 0.72290 -16.03100
H 	H 	0.68170 0.95090 0.66940 124.00200
H 	H 	0.73290 0.42270 0.98240 -27.52900
H 	H 	0.28580 0.35130 0.98830 -696.07600
H 	H 	0.31390 0.09550 0.50510 -5.36200
H 	H 	0.91840 0.38570 0.94360 6.00600
H 	H 	0.72230 0.04620 0.19620 98.83700
H 	H 	0.77840 0.65210 0.75950 4.03600
H 	H 	0.58970 0.27900 0.22550 127.41000
H 	H 	0.60790 0.27020 0.04790 20.75400
H 	H 	0.73290 0.55970 0.98240 -27.72900
H 	H 	0.19950 0.17150 0.73040 1.41400
H 	H 	0.39820 0.72290 0.11480 115.05600
H 	H 	0.68170 0.71850 0.66940 123.81300
H 	H 	0.68170 0.04910 0.71850 126.52000
H 	H 	0.28580 0.36300 0.35130 240.64600
H 	H 	0.23050 0.77770 0.05370 -16.34800
H 	H 	0.79280 0.79130 0.74170 143.83700
H 	H 	0.91840 0.38570 0.44210 -26.73300
H 	H 	0.60790 0.22230 0.27020 -121.68100
H 	H 	0.73290 0.55970 0.57730 116.96700
H 	H 	0.77840 0.34790 0.24050 3.92000
H 	H 	0.80050 0.26960 0.44110 3.62300
H 	H 	0.08160 0.44210 0.38570 14.09700
H 	H 	0.39820 0.88520 0.60810 -17.68000
H 	H 	0.28580 0.98830 0.35130 0.55100
H 	H 	0.68610 0.90450 0.49490 113.34700
H 	H 	0.72230 0.85000 0.04620 -33.08500
H 	H 	0.79280 0.79130 0.04960 -38.39700
H 	H 	0.82370 0.17010 0.42840 -3.85500
H 	H 	0.76950 0.77770 0.05370 4.31000
H 	H 	0.70060 0.84000 0.78680 -119.77100
H 	H 	0.73290 0.57730 0.55970 116.60100
H 	H 	0.39210 0.27020 0.22230 63.49500
H 	H 	0.41030 0.05350 0.77450 -20.19000
H 	H 	0.68170 0.66940 0.95090 -29.01500
H 	H 	0.27770 0.19620 0.04620 199.26400
H 	H 	0.35140 0.32710 0.29020 -138.95100
H 	H 	0.22160 0.10740 0.34790 0.18900
H 	H 	0.73290 0.44030 0.01760 -28.98800
H 	H 	0.72230 0.80380 0.95380 -33.32700
H 	H 	0.34560 0.29490 0.95550 -173.56300
H 	H 	0.35140 0.96310 0.29020 0.34500
H 	H 	0.35140 0.03690 0.32710 -0.22200
H 	H 	0.71420 0.35130 0.98830 107.84800
H 	H 	0.89700 0.60630 0.54820 28.53400
H 	H 	0.28580 0.36300 0.01170 -692.95900
H 	H 	0.68610 0.59040 0.09550 -30.55700
H 	H 	0.23050 0.27600 0.22230 4.19800
H 	H 	0.64860 0.03690 0.32710 206.32600
H 	H 	0.73290 0.98240 0.42270 95.88700
H 	H 	0.27770 0.04620 0.19620 -1.42900
H 	H 	0.73290 0.44030 0.42270 116.11200
H 	H 	0.17630 0.42840 0.25830 -0.37200
H 	H 	0.89700 0.60630 0.05810 -6.40900
H 	H 	0.23050 0.27600 0.05370 -9.10300
H 	H 	0.82370 0.17010 0.74170 -3.13000
H 	H 	0.58970 0.77450 0.72100 129.67200
H 	H 	0.26710 0.55970 0.57730 -65.65500
H 	H 	0.65440 0.33940 0.04450 25.37000
H 	H 	0.80050 0.82850 0.55890 3.65700
H 	H 	0.34560 0.95550 0.66060 19.67000
H 	H 	0.70060 0.21320 0.05320 28.70700
H 	H 	0.19950 0.82850 0.26960 1.31100
H 	H 	0.24670 0.63850 0.74560 8.18200
H 	H 	0.65440 0.29490 0.33940 -104.72400
H 	H 	0.76950 0.94630 0.72400 -11.11500
H 	H 	0.20720 0.04960 0.79130 -30.44600
H 	H 	0.39210 0.04790 0.27020 -6.95700
H 	H 	0.31390 0.59040 0.09550 168.84300
H 	H 	0.10300 0.05810 0.60630 -4.90400
H 	H 	0.17630 0.57160 0.74170 -0.21000
H 	H 	0.60180 0.72290 0.60810 80.86700
H 	H 	0.91840 0.94360 0.38570 -22.07300
H 	H 	0.41030 0.22550 0.27900 -70.13000
H 	H 	0.76950 0.72400 0.94630 2.81500
H 	H 	0.58970 0.94650 0.72100 134.68400
H 	H 	0.89700 0.54820 0.94190 -6.15900
H 	H 	0.20720 0.25830 0.20870 -81.47800
H 	H 	0.26710 0.55970 0.98240 169.05500
H 	H 	0.39210 0.77770 0.04790 -182.67200
H 	H 	0.19950 0.44110 0.17150 4.44200
H 	H 	0.70060 0.21320 0.16000 -112.72600
H 	H 	0.39210 0.27020 0.04790 -200.01000
H 	H 	0.76950 0.05370 0.77770 -5.37900
H 	H 	0.80050 0.73040 0.55890 3.59300
H 	H 	0.91840 0.94360 0.55790 -27.45700
H 	H 	0.77840 0.75950 0.10740 -2.41200
H 	H 	0.27770 0.85000 0.80380 -70.85300
H 	H 	0.72230 0.95380 0.15000 102.84600
H 	H 	0.31830 0.33060 0.28150 -66.74500
H 	H 	0.08160 0.55790 0.94360 -38.90000
H 	H 	0.70060 0.05320 0.84000 -121.19900
H 	H 	0.71420 0.98830 0.35130 -357.89700
H 	H 	0.34560 0.70510 0.66060 60.17100
H 	H 	0.80050 0.44110 0.17150 1.13000
H 	H 	0.23050 0.22230 0.94630 -17.40300
H 	H 	0.17630 0.17010 0.74170 -1.62200
H 	H 	0.72230 0.19620 0.04620 -33.42500
H 	H 	0.39820 0.27710 0.88520 125.26300
H 	H 	0.20720 0.74170 0.79130 -83.69800
H 	H 	0.20720 0.20870 0.95040 222.29500
H 	H 	0.91840 0.05640 0.61430 -27.36400
H 	H 	0.35140 0.70980 0.03690 365.36000
H 	H 	0.65440 0.04450 0.33940 -88.64000
H 	H 	0.77840 0.89260 0.24050 2.32600
H 	H 	0.26710 0.01760 0.44030 -0.32800
H 	H 	0.58970 0.22550 0.27900 128.92700
H 	H 	0.72230 0.85000 0.80380 125.69800
H 	H 	0.71420 0.35130 0.36300 -436.43600
H 	H 	0.58970 0.94650 0.22550 108.95800
H 	H 	0.34560 0.66060 0.95550 -152.22700
H 	H 	0.08160 0.38570 0.94360 -42.64700
H 	H 	0.35140 0.70980 0.67290 -142.63500
H 	H 	0.19950 0.73040 0.55890 -0.65000
H 	H 	0.31830 0.71850 0.66940 -67.91100
H 	H 	0.68610 0.90450 0.40960 97.21600
H 	H 	0.22160 0.65210 0.89260 5.36100
H 	H 	0.39820 0.39190 0.11480 126.82000
H 	H 	0.76950 0.22230 0.27600 -6.52800
H 	H 	0.71420 0.64870 0.63700 -439.56000
H 	H 	0.79280 0.74170 0.79130 140.90500
H 	H 	0.27770 0.15000 0.19620 -69.10500
H 	H 	0.65440 0.33940 0.29490 -109.49500
H 	H 	0.19950 0.44110 0.26960 0.15000
H 	H 	0.70060 0.78680 0.84000 -113.56900
H 	H 	0.24670 0.10710 0.36150 0.35400
H 	H 	0.22160 0.34790 0.10740 6.14900
H 	H 	0.64860 0.67290 0.70980 252.47300
H 	H 	0.29940 0.21320 0.16000 65.53600
H 	H 	0.19950 0.26960 0.44110 -0.50600
H 	H 	0.20720 0.79130 0.74170 -81.46800
H 	H 	0.19950 0.26960 0.82850 4.92900
H 	H 	0.27770 0.19620 0.15000 -71.46500
H 	H 	0.34560 0.33940 0.04450 -167.00200
H 	H 	0.65440 0.95550 0.66060 -112.82200
H 	H 	0.31390 0.90450 0.49490 -20.58500
H 	H 	0.27770 0.80380 0.95380 183.72900
H 	H 	0.80050 0.26960 0.82850 1.38200
H 	H 	0.34560 0.29490 0.33940 58.08200
H 	H 	0.73290 0.01760 0.57730 118.05400
H 	H 	0.58970 0.05350 0.27900 108.78800
H 	H 	0.76950 0.22230 0.94630 2.96300
H 	H 	0.26710 0.01760 0.57730 -23.57300
H 	H 	0.76950 0.72400 0.77770 -11.45300
H 	H 	0.41030 0.05350 0.27900 4.25400
H 	H 	0.60180 0.88520 0.60810 80.99900
H 	H 	0.39210 0.22230 0.27020 64.43500
H 	H 	0.34560 0.66060 0.70510 58.62500
H 	H 	0.29940 0.78680 0.94680 -173.43700
H 	H 	0.91840 0.05640 0.44210 -22.29500
H 	H 	0.60180 0.27710 0.88520 -20.61400
H 	H 	0.79280 0.04960 0.25830 112.96700
H 	H 	0.68170 0.71850 0.04910 -28.16300
H 	H 	0.28580 0.63700 0.64870 248.50700
H 	H 	0.60180 0.60810 0.88520 -20.82700
H 	H 	0.68610 0.09550 0.59040 112.96000
H 	H 	0.27770 0.04620 0.85000 -26.39700
H 	H 	0.17630 0.82990 0.25830 -1.51600
H 	H 	0.34560 0.33940 0.29490 56.58600
H 	H 	0.71420 0.98830 0.63700 -449.30200
H 	H 	0.73290 0.98240 0.55970 119.95100
H 	H 	0.27770 0.85000 0.04620 178.65300
H 	H 	0.75330 0.89290 0.63850 -13.07200
H 	H 	0.26710 0.44030 0.01760 183.08000
H 	H 	0.24670 0.36150 0.25440 8.02800
H 	H 	0.24670 0.89290 0.63850 3.67900
H 	H 	0.22160 0.10740 0.75950 -2.69700
H 	H 	0.68170 0.28150 0.33060 122.93200
H 	H 	0.82370 0.57160 0.74170 -3.31800
H 	H 	0.58970 0.22550 0.94650 -26.54800
H 	H 	0.91840 0.61430 0.05640 5.93700
H 	H 	0.10300 0.45180 0.05810 44.73200
H 	H 	0.28580 0.35130 0.36300 241.91600
H 	H 	0.65440 0.95550 0.29490 -85.74500
H 	H 	0.31390 0.59040 0.49490 -67.23400
H 	H 	0.68170 0.66940 0.71850 121.56500
H 	H 	0.60790 0.04790 0.27020 -104.67200
H 	H 	0.80050 0.44110 0.26960 3.44000
C 	C 	0.17040 0.02920 0.63540 14.03200
C 	C 	0.14590 0.38070 0.35180 -36.56000
C 	C 	0.66500 0.30310 0.02660 14.42100
C 	C 	0.85180 0.87960 0.33360 -18.31500
C 	C 	0.71930 0.00310 0.28970 -168.39000
C 	C 	0.68980 0.29390 0.26420 -115.36300
C 	C 	0.67800 0.46900 0.38540 132.67400
C 	C 	0.38310 0.83520 0.83760 -8.70600
C 	C 	0.87320 0.11940 0.44370 23.43700
C 	C 	0.34030 0.20190 0.20470 36.80400
C 	C 	0.66500 0.27650 0.97340 16.49800
C 	C 	0.32200 0.46900 0.08360 211.10000
C 	C 	0.85410 0.02890 0.64820 61.82600
C 	C 	0.21100 0.36660 0.32200 -39.69800
C 	C 	0.19070 0.86470 0.57220 -1.46000
C 	C 	0.81520 0.04470 0.69250 -59.70700
C 	C 	0.11180 0.33840 0.50020 3.28700
C 	C 	0.31020 0.70610 0.73580 64.41300
C 	C 	0.30760 0.77140 0.80340 -196.72900
C 	C 	0.29400 0.96210 0.56900 76.45200
C 	C 	0.18480 0.30750 0.95530 -90.63500
C 	C 	0.25550 0.27450 0.00080 838.89300
C 	C 	0.17040 0.02920 0.39380 0.67500
C 	C 	0.74450 0.27370 0.99920 -131.77400
C 	C 	0.14820 0.33360 0.87960 -32.26600
C 	C 	0.69240 0.22860 0.19660 334.55400
C 	C 	0.65970 0.20470 0.00280 12.96800
C 	C 	0.60700 0.50800 0.67100 33.15100
C 	C 	0.19070 0.13530 0.42780 -0.46900
C 	C 	0.29400 0.39310 0.43100 215.68900
C 	C 	0.31020 0.73580 0.02970 -169.42700
C 	C 	0.40180 0.17580 0.00300 47.56100
C 	C 	0.37160 0.30670 0.90500 215.40400
C 	C 	0.19620 0.63210 0.90290 -34.30800
C 	C 	0.18480 0.64780 0.69250 31.98800
C 	C 	0.75590 0.22130 0.97160 118.61300
C 	C 	0.68980 0.26420 0.97030 24.13500
C 	C 	0.78900 0.63340 0.67800 74.35500
C 	C 	0.71930 0.71030 0.99690 54.63000
C 	C 	0.14590 0.38070 0.02890 97.10200
C 	C 	0.82960 0.39380 0.36460 -53.49100
C 	C 	0.11180 0.50020 0.16180 -11.35000
C 	C 	0.11240 0.42530 0.06650 27.87700
C 	C 	0.16770 0.71880 0.13380 4.84800
C 	C 	0.21100 0.36660 0.04460 117.13200
C 	C 	0.70600 0.39310 0.43100 -393.20700
C 	C 	0.73250 0.96730 0.23360 208.54700
C 	C 	0.66500 0.72350 0.69690 -61.75100
C 	C 	0.75590 0.97160 0.75030 -449.57200
C 	C 	0.35320 0.22850 0.97050 266.74500
C 	C 	0.75590 0.75030 0.77870 -440.58500
C 	C 	0.59820 0.82720 0.82420 26.29200
C 	C 	0.40180 0.82720 0.00300 43.62300
C 	C 	0.83230 0.86620 0.58500 3.41700
C 	C 	0.71930 0.71340 0.71030 -211.85700
C 	C 	0.32200 0.91640 0.38540 3.80400
C 	C 	0.22080 0.61840 0.71570 -14.24300
C 	C 	0.63950 0.54540 0.65790 -102.04400
C 	C 	0.31020 0.02970 0.73580 18.12200
C 	C 	0.31020 0.02970 0.29390 -4.07900
C 	C 	0.67800 0.53100 0.61460 133.78000
C 	C 	0.21100 0.32200 0.36660 -40.73800
C 	C 	0.13530 0.93220 0.36800 -0.69700
C 	C 	0.69240 0.19660 0.22860 345.50100
C 	C 	0.80380 0.72920 0.09710 6.92800
C 	C 	0.78900 0.36660 0.32200 73.93800
C 	C 	0.11240 0.93350 0.57470 -3.44900
C 	C 	0.09580 0.66800 0.50670 -2.42400
C 	C 	0.70600 0.03790 0.43100 -322.25700
C 	C 	0.28610 0.18670 0.21350 107.65600
C 	C 	0.30500 0.35800 0.37800 -422.13800
C 	C 	0.70600 0.39310 0.96210 95.10600
C 	C 	0.85180 0.66640 0.12040 1.69000
C 	C 	0.32200 0.53100 0.91640 191.60500
C 	C 	0.86470 0.56420 0.63200 -29.07300
C 	C 	0.30500 0.37800 0.02000 1212.74200
C 	C 	0.36050 0.88750 0.54540 19.51400
C 	C 	0.82960 0.63540 0.02920 16.84800
C 	C 	0.64680 0.97050 0.22850 140.93700
C 	C 	0.26750 0.76640 0.73370 -153.52700
C 	C 	0.70600 0.56900 0.96210 95.71400
C 	C 	0.19620 0.27080 0.90290 -37.72200
C 	C 	0.67800 0.38540 0.91640 -30.80900
C 	C 	0.83230 0.28120 0.41500 3.30300
C 	C 	0.69240 0.80340 0.77140 347.93200
C 	C 	0.68980 0.02970 0.29390 -97.48300
C 	C 	0.62840 0.30670 0.90500 -33.35100
C 	C 	0.82960 0.97080 0.60620 -54.83300
C 	C 	0.34400 0.36330 0.04930 -613.16700
C 	C 	0.12680 0.11940 0.67570 -1.97600
C 	C 	0.78900 0.32200 0.36660 73.62100
C 	C 	0.67800 0.61460 0.08360 -31.26200
C 	C 	0.21100 0.63340 0.67800 -40.92600
C 	C 	0.17040 0.36460 0.97080 -85.96200
C 	C 	0.28610 0.21350 0.02680 -298.18400
C 	C 	0.24410 0.75030 0.77870 261.95900
C 	C 	0.83230 0.13380 0.71880 2.90700
C 	C 	0.35320 0.74200 0.77150 -95.54700
C 	C 	0.65600 0.04930 0.68600 -395.23100
C 	C 	0.78900 0.95540 0.63340 75.94800
C 	C 	0.65970 0.20470 0.20190 -67.46400
C 	C 	0.11180 0.66160 0.49980 3.43000
C 	C 	0.65600 0.31400 0.95070 94.19900
C 	C 	0.30760 0.22860 0.19660 -190.85900
C 	C 	0.61690 0.99760 0.16240 6.99200
C 	C 	0.31020 0.97030 0.70610 20.53400
C 	C 	0.69500 0.37800 0.35800 766.50000
C 	C 	0.65970 0.00280 0.79810 -68.55600
C 	C 	0.14820 0.33360 0.45400 8.90700
C 	C 	0.74450 0.72630 0.72550 530.72300
C 	C 	0.78900 0.67800 0.04460 -17.46500
C 	C 	0.69500 0.98000 0.35800 629.62300
C 	C 	0.65970 0.20190 0.99720 8.71500
C 	C 	0.33500 0.30310 0.27650 35.08100
C 	C 	0.78900 0.95540 0.32200 60.05000
C 	C 	0.80930 0.86470 0.29250 -3.06900
C 	C 	0.66500 0.69690 0.72350 -52.28600
C 	C 	0.61690 0.00240 0.83760 17.71800
C 	C 	0.60700 0.49200 0.16300 -7.81400
C 	C 	0.11180 0.16180 0.66160 0.09100
C 	C 	0.22080 0.09730 0.38160 -0.60000
C 	C 	0.39300 0.83700 0.32900 0.63500
C 	C 	0.65970 0.99720 0.20190 -61.96000
C 	C 	0.64680 0.97050 0.74200 171.81800
C 	C 	0.86470 0.43580 0.06780 6.88900
C 	C 	0.90420 0.33200 0.49330 6.21000
C 	C 	0.85410 0.02890 0.38070 47.10300
C 	C 	0.71390 0.21350 0.18670 -189.58300
C 	C 	0.09580 0.16130 0.49330 0.44300
C 	C 	0.36050 0.88750 0.34210 -1.76300
C 	C 	0.64680 0.74200 0.97050 -39.89100
C 	C 	0.74450 0.72550 0.99920 -131.60000
C 	C 	0.61690 0.83520 0.99760 -8.31900
C 	C 	0.65600 0.95070 0.63670 -389.30100
C 	C 	0.26750 0.76640 0.03270 381.25600
C 	C 	0.35320 0.25800 0.22850 -92.86800
C 	C 	0.19620 0.27080 0.36790 14.16000
C 	C 	0.62540 0.26750 0.03070 28.31900
C 	C 	0.18480 0.30750 0.35220 31.44000
C 	C 	0.36050 0.54540 0.88750 -147.54000
C 	C 	0.26750 0.23360 0.96730 414.81800
C 	C 	0.90420 0.50670 0.66800 6.18900
C 	C 	0.24410 0.02840 0.24970 3.00500
C 	C 	0.65970 0.99720 0.79530 -74.18600
C 	C 	0.11180 0.83820 0.33840 -0.76200
C 	C 	0.36050 0.34210 0.45460 54.22700
C 	C 	0.67800 0.08360 0.46900 106.85700
C 	C 	0.21100 0.95540 0.32200 0.88900
C 	C 	0.75590 0.24970 0.02840 114.75600
C 	C 	0.37160 0.09500 0.40170 0.91900
C 	C 	0.11180 0.49980 0.66160 3.07100
C 	C 	0.81520 0.64780 0.69250 -57.23600
C 	C 	0.73250 0.26630 0.03270 -72.42200
C 	C 	0.85180 0.54600 0.66640 -20.71200
C 	C 	0.60700 0.16300 0.49200 26.44900
C 	C 	0.83230 0.58500 0.71880 3.35700
C 	C 	0.68980 0.29390 0.02970 22.12400
C 	C 	0.75590 0.77870 0.02840 114.48500
C 	C 	0.85180 0.12040 0.45400 -18.47700
C 	C 	0.62540 0.73250 0.76320 -107.90300
C 	C 	0.65600 0.63670 0.95070 94.81300
C 	C 	0.24410 0.75030 0.97160 -666.28800
C 	C 	0.34030 0.99720 0.79530 5.19600
C 	C 	0.22080 0.71570 0.61840 -14.37700
C 	C 	0.85180 0.54600 0.87960 1.66900
C 	C 	0.62840 0.09500 0.40170 111.89200
C 	C 	0.35320 0.77150 0.02950 244.86300
C 	C 	0.30760 0.77140 0.96800 503.66200
C 	C 	0.63950 0.11250 0.65790 -105.42500
C 	C 	0.71390 0.02680 0.21350 -155.31600
C 	C 	0.33500 0.69690 0.72350 35.86800
C 	C 	0.61690 0.16240 0.16480 18.31900
C 	C 	0.28610 0.97320 0.18670 1.69400
C 	C 	0.83230 0.13380 0.41500 3.77900
C 	C 	0.69240 0.77140 0.80340 336.72900
C 	C 	0.87320 0.55630 0.88060 -3.49100
C 	C 	0.12680 0.44370 0.11940 41.24700
C 	C 	0.77920 0.09730 0.38160 17.89400
C 	C 	0.86470 0.93220 0.56420 -29.81600
C 	C 	0.59820 0.82420 0.99700 -6.80000
C 	C 	0.17040 0.60620 0.97080 -77.20100
C 	C 	0.35320 0.22850 0.25800 -92.31700
C 	C 	0.60700 0.32900 0.49200 32.94600
C 	C 	0.59820 0.00300 0.17580 28.36800
C 	C 	0.85410 0.38070 0.35180 60.63400
C 	C 	0.83230 0.41500 0.28120 3.52000
C 	C 	0.64680 0.25800 0.22850 165.56300
C 	C 	0.75590 0.02840 0.24970 -357.35500
C 	C 	0.71930 0.00310 0.71340 -214.28200
C 	C 	0.14820 0.45400 0.12040 -31.36000
C 	C 	0.39300 0.50800 0.67100 -18.26300
C 	C 	0.59820 0.17580 0.00300 -2.60300
C 	C 	0.37460 0.26750 0.23680 61.99900
C 	C 	0.24410 0.24970 0.02840 -725.84500
C 	C 	0.16770 0.86620 0.28120 1.30800
C 	C 	0.32200 0.08360 0.61460 -26.72700
C 	C 	0.77920 0.61840 0.71570 22.50900
C 	C 	0.71390 0.97320 0.78650 -193.70500
C 	C 	0.18480 0.04470 0.69250 9.81200
C 	C 	0.19620 0.72920 0.63210 14.47500
C 	C 	0.69240 0.03200 0.80340 351.88400
C 	C 	0.82960 0.60620 0.63540 -54.10600
C 	C 	0.19070 0.70750 0.57220 -0.29100
C 	C 	0.35320 0.97050 0.74200 -31.62400
C 	C 	0.24410 0.02840 0.77870 88.99200
C 	C 	0.90420 0.16130 0.66800 6.12400
C 	C 	0.40180 0.82420 0.99700 40.66600
C 	C 	0.16770 0.71880 0.58500 -0.09400
C 	C 	0.86470 0.93220 0.36800 -23.81400
C 	C 	0.39300 0.16300 0.49200 1.01900
C 	C 	0.60700 0.67100 0.50800 33.16700
C 	C 	0.88820 0.50020 0.33840 -7.43500
C 	C 	0.86470 0.56420 0.93220 6.58900
C 	C 	0.75590 0.75030 0.97160 118.39300
C 	C 	0.66500 0.69690 0.97340 16.54900
C 	C 	0.69240 0.22860 0.03200 -85.36400
C 	C 	0.85180 0.66640 0.54600 -20.71300
C 	C 	0.36050 0.65790 0.54540 56.15300
C 	C 	0.73250 0.76640 0.73370 258.50800
C 	C 	0.33500 0.72350 0.69690 32.77800
C 	C 	0.37460 0.03070 0.26750 1.76600
C 	C 	0.18480 0.95530 0.30750 -0.51700
C 	C 	0.11240 0.35880 0.42530 -9.80500
C 	C 	0.66500 0.97340 0.27650 -51.12500
C 	C 	0.37160 0.30670 0.40170 -73.86300
C 	C 	0.36050 0.65790 0.11250 -146.43400
C 	C 	0.26750 0.26630 0.23360 -144.48000
C 	C 	0.13530 0.06780 0.43580 -0.07500
C 	C 	0.82960 0.63540 0.60620 -53.28600
C 	C 	0.80380 0.63210 0.72920 -23.49400
C 	C 	0.17040 0.36460 0.39380 32.12600
C 	C 	0.62840 0.90500 0.30670 113.87600
C 	C 	0.19620 0.90290 0.63210 6.27500
C 	C 	0.77920 0.61840 0.90270 -7.65000
C 	C 	0.68980 0.70610 0.73580 -116.25600
C 	C 	0.88760 0.06650 0.42530 14.62400
C 	C 	0.39300 0.32900 0.49200 -17.18700
C 	C 	0.80930 0.42780 0.13530 -1.78200
C 	C 	0.69240 0.96800 0.19660 283.83100
C 	C 	0.87320 0.88060 0.32430 23.45700
C 	C 	0.21100 0.63340 0.95540 107.10300
C 	C 	0.34400 0.68600 0.04930 -555.45600
C 	C 	0.64680 0.02950 0.77150 173.66800
C 	C 	0.60700 0.16300 0.67100 34.13900
C 	C 	0.39300 0.49200 0.16300 52.23400
C 	C 	0.38310 0.16240 0.99760 21.94900
C 	C 	0.62540 0.23680 0.96930 28.41700
C 	C 	0.90420 0.66800 0.16130 -0.11100
C 	C 	0.90420 0.33200 0.83870 -0.02400
C 	C 	0.66500 0.02660 0.72350 -60.11200
C 	C 	0.18480 0.69250 0.04470 -83.65900
C 	C 	0.34400 0.68600 0.63670 216.92900
C 	C 	0.21100 0.67800 0.04460 108.43100
C 	C 	0.38310 0.16480 0.00240 25.87300
C 	C 	0.28070 0.28970 0.28660 116.70000
C 	C 	0.75590 0.24970 0.22130 -437.75900
C 	C 	0.70600 0.43100 0.39310 -393.88000
C 	C 	0.65600 0.36330 0.31400 -379.98500
C 	C 	0.19070 0.13530 0.70750 -1.87600
C 	C 	0.90420 0.50670 0.83870 -0.15000
C 	C 	0.75590 0.02840 0.77870 -467.37700
C 	C 	0.61690 0.99760 0.83520 14.17100
C 	C 	0.28610 0.81330 0.02680 -276.27700
C 	C 	0.69240 0.96800 0.77140 344.55500
C 	C 	0.09580 0.83870 0.50670 -0.03000
C 	C 	0.11180 0.66160 0.16180 -10.93400
C 	C 	0.13530 0.56420 0.93220 -42.10500
C 	C 	0.38310 0.00240 0.16480 -0.46500
C 	C 	0.36050 0.11250 0.65790 20.08900
C 	C 	0.19620 0.90290 0.27080 0.52200
C 	C 	0.71930 0.71340 0.00310 58.43700
C 	C 	0.22080 0.90270 0.28430 -0.87700
C 	C 	0.33500 0.69690 0.97340 -90.13800
C 	C 	0.85410 0.35180 0.97110 -18.82500
C 	C 	0.70600 0.56900 0.60690 -396.79900
C 	C 	0.38310 0.99760 0.16240 -4.85500
C 	C 	0.19070 0.70750 0.13530 -3.40700
C 	C 	0.36050 0.34210 0.88750 -160.75700
C 	C 	0.34400 0.31400 0.36330 210.26600
C 	C 	0.19070 0.29250 0.86470 -3.33700
C 	C 	0.61690 0.16240 0.99760 -9.72200
C 	C 	0.30760 0.03200 0.22860 -2.28700
C 	C 	0.88760 0.93350 0.57470 18.13500
C 	C 	0.39300 0.83700 0.50800 -6.08400
C 	C 	0.70600 0.60690 0.56900 -396.09800
C 	C 	0.62840 0.59830 0.90500 -33.45300
C 	C 	0.22080 0.28430 0.90270 36.18000
C 	C 	0.73250 0.23360 0.26630 256.71000
C 	C 	0.39300 0.16300 0.67100 -6.63300
C 	C 	0.64010 0.78540 0.78540 -153.50000
C 	C 	0.11240 0.42530 0.35880 -9.60100
C 	C 	0.36050 0.11250 0.45460 -2.29500
C 	C 	0.37160 0.69330 0.59830 -76.21200
C 	C 	0.88760 0.64120 0.06650 -4.40600
C 	C 	0.90420 0.83870 0.33200 5.67900
C 	C 	0.29400 0.43100 0.03790 -623.87200
C 	C 	0.87320 0.11940 0.67570 26.78400
C 	C 	0.28610 0.78650 0.81330 107.91300
C 	C 	0.28610 0.78650 0.97320 -274.29700
C 	C 	0.24410 0.24970 0.22130 254.18900
C 	C 	0.80930 0.13530 0.42780 -2.99100
C 	C 	0.73250 0.73370 0.76640 263.69600
C 	C 	0.62840 0.69330 0.59830 138.95700
C 	C 	0.86470 0.06780 0.43580 -23.58200
C 	C 	0.60700 0.83700 0.32900 26.82400
C 	C 	0.39300 0.50800 0.83700 47.63100
C 	C 	0.65600 0.63670 0.68600 -382.59600
C 	C 	0.59820 0.00300 0.82720 30.47000
C 	C 	0.13530 0.36800 0.93220 -46.16400
C 	C 	0.85180 0.12040 0.66640 -20.62100
C 	C 	0.34030 0.79530 0.79810 36.97100
C 	C 	0.38310 0.16480 0.16240 -8.22200
C 	C 	0.85180 0.45400 0.33360 -20.83500
C 	C 	0.71930 0.28970 0.28660 -213.35300
C 	C 	0.30500 0.02000 0.37800 0.54900
C 	C 	0.22080 0.38160 0.09730 36.95700
C 	C 	0.78900 0.32200 0.95540 -17.76700
C 	C 	0.59820 0.17280 0.17580 26.37600
C 	C 	0.59820 0.17280 0.99700 -6.80600
C 	C 	0.90420 0.49330 0.33200 6.24500
C 	C 	0.78900 0.04460 0.67800 75.72800
C 	C 	0.77920 0.90270 0.28430 17.35300
C 	C 	0.28610 0.97320 0.78650 41.82300
C 	C 	0.25550 0.27450 0.27370 -287.91300
C 	C 	0.35320 0.74200 0.97050 249.62400
C 	C 	0.09580 0.33200 0.83870 9.47300
C 	C 	0.63950 0.45460 0.34210 -101.22800
C 	C 	0.70600 0.96210 0.39310 -322.74500
C 	C 	0.40180 0.82720 0.82420 -16.67500
C 	C 	0.26750 0.26630 0.03270 403.82600
C 	C 	0.77920 0.09730 0.71570 23.52000
C 	C 	0.36050 0.45460 0.11250 -161.83600
C 	C 	0.37460 0.73250 0.76320 63.74000
C 	C 	0.86470 0.36800 0.43580 -28.79000
C 	C 	0.35990 0.00000 0.21460 7.60900
C 	C 	0.66500 0.30310 0.27650 -52.12500
C 	C 	0.80930 0.70750 0.57220 -2.56100
C 	C 	0.12680 0.67570 0.55630 -13.13800
C 	C 	0.64680 0.77150 0.02950 -39.70400
C 	C 	0.37160 0.59830 0.90500 201.09100
C 	C 	0.30760 0.19660 0.96800 533.06800
C 	C 	0.38310 0.16240 0.16480 -9.13000
C 	C 	0.11180 0.16180 0.50020 -0.27500
C 	C 	0.62540 0.76320 0.03070 28.45200
C 	C 	0.68980 0.26420 0.29390 -118.99500
C 	C 	0.81520 0.30750 0.35220 -58.33900
C 	C 	0.63950 0.88750 0.54540 -104.63000
C 	C 	0.82960 0.97080 0.36460 -41.35100
C 	C 	0.28610 0.21350 0.18670 104.60700
C 	C 	0.26750 0.73370 0.76640 -148.71600
C 	C 	0.19620 0.09710 0.36790 0.11300
C 	C 	0.33500 0.72350 0.02660 -78.79800
C 	C 	0.90420 0.83870 0.50670 6.25700
C 	C 	0.71390 0.81330 0.02680 50.68800
C 	C 	0.29400 0.60690 0.03790 -572.57200
C 	C 	0.68980 0.97030 0.26420 -98.49200
C 	C 	0.16770 0.86620 0.58500 1.62400
C 	C 	0.30500 0.64200 0.62200 -435.91000
C 	C 	0.77920 0.28430 0.38160 22.71700
C 	C 	0.21100 0.04460 0.36660 0.62000
C 	C 	0.30500 0.98000 0.35800 1.87000
C 	C 	0.26750 0.96730 0.23360 -3.30100
C 	C 	0.17040 0.39380 0.36460 32.25100
C 	C 	0.62840 0.69330 0.09500 -33.11900
C 	C 	0.37460 0.73250 0.96930 -161.93700
C 	C 	0.82960 0.39380 0.02920 17.14100
C 	C 	0.63950 0.34210 0.45460 -101.64500
C 	C 	0.29400 0.56900 0.96210 -572.29100
C 	C 	0.80930 0.29250 0.42780 -2.62200
C 	C 	0.35320 0.25800 0.02950 271.09400
C 	C 	0.62840 0.09500 0.69330 141.33600
C 	C 	0.21100 0.32200 0.95540 117.86400
C 	C 	0.09580 0.66800 0.16130 9.03700
C 	C 	0.25550 0.00080 0.27450 6.88600
C 	C 	0.16770 0.28120 0.86620 4.79600
C 	C 	0.34400 0.95070 0.31400 -0.25800
C 	C 	0.21100 0.04460 0.67800 -13.19000
C 	C 	0.86470 0.36800 0.93220 6.53100
C 	C 	0.32200 0.61460 0.08360 191.14200
C 	C 	0.69500 0.64200 0.62200 770.51000
C 	C 	0.69240 0.77140 0.96800 -86.41400
C 	C 	0.33500 0.27650 0.97340 -83.12100
C 	C 	0.86470 0.63200 0.06780 6.84500
C 	C 	0.29400 0.03790 0.43100 -2.18400
C 	C 	0.75590 0.77870 0.75030 -461.77900
C 	C 	0.69240 0.80340 0.03200 -85.48900
C 	C 	0.63950 0.45460 0.11250 23.91200
C 	C 	0.28070 0.28970 0.00310 -332.60000
C 	C 	0.71930 0.99690 0.71030 -221.31500
C 	C 	0.12680 0.44370 0.32430 -11.79100
C 	C 	0.33500 0.02660 0.30310 3.92900
C 	C 	0.60700 0.49200 0.32900 32.86800
C 	C 	0.16770 0.13380 0.71880 1.66400
C 	C 	0.13530 0.06780 0.63200 5.33700
C 	C 	0.77920 0.28430 0.90270 -7.85100
C 	C 	0.12680 0.11940 0.44370 0.57600
C 	C 	0.35990 0.78540 -0.00000 -213.34800
C 	C 	0.11240 0.57470 0.93350 25.59100
C 	C 	0.09580 0.83870 0.33200 0.78000
C 	C 	0.19620 0.36790 0.27080 14.04500
C 	C 	0.80930 0.57220 0.86470 -1.90200
C 	C 	0.34400 0.63670 0.95070 -564.75900
C 	C 	0.37160 0.90500 0.30670 0.58600
C 	C 	0.14820 0.12040 0.45400 -0.98700
C 	C 	0.26750 0.03270 0.76640 -55.36700
C 	C 	0.88820 0.66160 0.49980 -7.43700
C 	C 	0.35320 0.02950 0.77150 -29.92100
C 	C 	0.30500 0.64200 0.02000 1116.08300
C 	C 	0.21100 0.67800 0.63340 -41.98900
C 	C 	0.64010 0.00000 0.78540 -150.24400
C 	C 	0.11180 0.49980 0.83820 -10.78500
C 	C 	0.69240 0.19660 0.96800 -86.08300
C 	C 	0.62540 0.26750 0.23680 -107.32400
C 	C 	0.32200 0.08360 0.46900 3.59500
C 	C 	0.35990 0.78540 0.78540 87.66900
C 	C 	0.30760 0.96800 0.19660 1.82800
C 	C 	0.85180 0.45400 0.12040 1.58400
C 	C 	0.37460 0.96930 0.73250 22.38400
C 	C 	0.59820 0.99700 0.82420 26.84100
C 	C 	0.60700 0.67100 0.16300 -7.82200
C 	C 	0.37160 0.40170 0.30670 -75.35900
C 	C 	0.30760 0.19660 0.22860 -186.85900
C 	C 	0.77920 0.90270 0.61840 22.94200
C 	C 	0.80930 0.70750 0.13530 -1.67000
C 	C 	0.35990 0.21460 -0.00000 -233.19700
C 	C 	0.33500 0.97340 0.69690 12.69700
C 	C 	0.11240 0.06650 0.64120 -3.36000
C 	C 	0.32200 0.38540 0.91640 211.13300
C 	C 	0.61690 0.83760 0.83520 18.82000
C 	C 	0.34400 0.04930 0.68600 72.26300
C 	C 	0.31020 0.26420 0.29390 60.51100
C 	C 	0.38310 0.99760 0.83520 -9.89600
C 	C 	0.78900 0.67800 0.63340 74.18500
C 	C 	0.69500 0.98000 0.62200 786.13500
C 	C 	0.88820 0.50020 0.16180 0.46600
C 	C 	0.62540 0.23680 0.26750 -110.75100
C 	C 	0.30500 0.37800 0.35800 -421.58600
C 	C 	0.78900 0.63340 0.95540 -17.91300
C 	C 	0.39300 0.67100 0.50800 -17.79300
C 	C 	0.37460 0.96930 0.23680 -0.51600
C 	C 	0.09580 0.33200 0.49330 -2.32100
C 	C 	0.40180 0.00300 0.17580 4.32800
C 	C 	0.14820 0.66640 0.54600 9.32500
C 	C 	0.12680 0.67570 0.11940 39.35700
C 	C 	0.62540 0.96930 0.73250 -111.07200
C 	C 	0.13530 0.43580 0.06780 -45.61200
C 	C 	0.13530 0.36800 0.43580 15.60000
C 	C 	0.88760 0.42530 0.35880 17.81100
C 	C 	0.40180 0.17580 0.17280 -15.65800
C 	C 	0.71390 0.02680 0.81330 -191.08100
C 	C 	0.28610 0.02680 0.81330 38.20900
C 	C 	0.59820 0.17580 0.17280 25.60200
C 	C 	0.85410 0.64820 0.02890 -19.42100
C 	C 	0.13530 0.63200 0.56420 16.05800
C 	C 	0.69240 0.03200 0.22860 274.61000
C 	C 	0.24410 0.77870 0.75030 252.77200
C 	C 	0.83230 0.58500 0.86620 1.70600
C 	C 	0.86470 0.06780 0.63200 -29.32100
C 	C 	0.19620 0.72920 0.09710 -34.48300
C 	C 	0.73250 0.03270 0.76640 258.71200
C 	C 	0.73250 0.96730 0.73370 267.12900
C 	C 	0.59820 0.82420 0.82720 25.38400
C 	C 	0.64680 0.22850 0.97050 -39.37600
C 	C 	0.25550 0.99920 0.72550 -106.77800
C 	C 	0.88760 0.42530 0.06650 -4.44100
C 	C 	0.73250 0.03270 0.26630 213.13100
C 	C 	0.81520 0.69250 0.04470 13.32400
C 	C 	0.81520 0.64780 0.95530 14.31800
C 	C 	0.70600 0.60690 0.03790 96.47000
C 	C 	0.29400 0.39310 0.96210 -625.31900
C 	C 	0.22080 0.61840 0.90270 33.16700
C 	C 	0.59820 0.82720 0.00300 -3.83300
C 	C 	0.80380 0.27080 0.36790 -23.42800
C 	C 	0.34400 0.95070 0.63670 74.57900
C 	C 	0.77920 0.71570 0.09730 -7.18500
C 	C 	0.30500 0.02000 0.64200 -150.44300
C 	C 	0.61690 0.83520 0.83760 17.85500
C 	C 	0.90420 0.16130 0.49330 5.70000
C 	C 	0.14820 0.66640 0.12040 -30.29500
C 	C 	0.87320 0.55630 0.67570 26.91400
C 	C 	0.37160 0.59830 0.69330 -77.74000
C 	C 	0.14590 0.64820 0.02890 88.11700
C 	C 	0.65600 0.04930 0.36330 -314.49500
C 	C 	0.38310 0.83520 0.99760 20.14200
C 	C 	0.34030 0.20470 0.00280 -107.47400
C 	C 	0.35990 0.21460 0.21460 84.75000
C 	C 	0.28070 0.99690 0.28660 -3.31400
C 	C 	0.65600 0.36330 0.04930 92.73600
C 	C 	0.28070 0.71340 0.71030 122.03300
C 	C 	0.28070 0.28660 0.99690 -340.51000
C 	C 	0.40180 0.17280 0.99700 43.62400
C 	C 	0.78900 0.04460 0.36660 61.26500
C 	C 	0.19070 0.42780 0.13530 -2.74000
C 	C 	0.87320 0.67570 0.55630 27.02900
C 	C 	0.85410 0.64820 0.61930 61.08500
C 	C 	0.82960 0.60620 0.97080 17.01400
C 	C 	0.25550 0.72550 0.99920 764.54000
C 	C 	0.63950 0.11250 0.45460 -82.15500
C 	C 	0.71930 0.99690 0.28660 -170.56700
C 	C 	0.13530 0.93220 0.56420 5.23500
C 	C 	0.28610 0.02680 0.21350 5.04500
C 	C 	0.30500 0.62200 0.98000 1115.01600
C 	C 	0.62840 0.59830 0.69330 137.20300
C 	C 	0.88760 0.64120 0.57470 17.62200
C 	C 	0.67800 0.38540 0.46900 132.72000
C 	C 	0.83230 0.71880 0.58500 3.20700
C 	C 	0.88820 0.49980 0.83820 0.52500
C 	C 	0.80930 0.86470 0.57220 -2.67500
C 	C 	0.69500 0.35800 0.37800 765.01900
C 	C 	0.34030 0.00280 0.79810 10.02100
C 	C 	0.24410 0.22130 0.97160 -695.96200
C 	C 	0.69500 0.62200 0.98000 -188.17500
C 	C 	0.66500 0.02660 0.30310 -45.63500
C 	C 	0.34030 0.79810 0.79530 37.73000
C 	C 	0.17040 0.60620 0.63540 32.98100
C 	C 	0.09580 0.49330 0.16130 9.22700
C 	C 	0.14590 0.61930 0.64820 -37.40700
C 	C 	0.26750 0.73370 0.96730 372.57300
C 	C 	0.65970 0.79810 0.00280 13.55200
C 	C 	0.64680 0.74200 0.77150 166.50200
C 	C 	0.87320 0.32430 0.44370 26.93700
C 	C 	0.40180 0.00300 0.82720 0.42500
C 	C 	0.34400 0.04930 0.36330 0.94600
C 	C 	0.81520 0.69250 0.64780 -58.79600
C 	C 	0.88820 0.83820 0.49980 -7.59500
C 	C 	0.40180 0.99700 0.82420 -5.23000
C 	C 	0.85410 0.35180 0.38070 60.48100
C 	C 	0.60700 0.50800 0.83700 -7.80500
C 	C 	0.36050 0.45460 0.34210 55.02500
C 	C 	0.22080 0.38160 0.28430 -13.96000
C 	C 	0.74450 0.99920 0.27370 426.70900
C 	C 	0.09580 0.50670 0.66800 -2.14300
C 	C 	0.34030 0.20190 0.99720 -113.80500
C 	C 	0.88820 0.16180 0.66160 -7.43000
C 	C 	0.30500 0.35800 0.98000 1215.86900
C 	C 	0.37460 0.76320 0.73250 63.52500
C 	C 	0.34030 0.79810 0.00280 -101.97100
C 	C 	0.82960 0.02920 0.63540 -54.82000
C 	C 	0.65600 0.68600 0.63670 -389.91200
C 	C 	0.39300 0.49200 0.32900 -17.65800
C 	C 	0.39300 0.67100 0.16300 47.13400
C 	C 	0.88760 0.93350 0.35880 14.31700
C 	C 	0.14590 0.64820 0.61930 -37.07300
C 	C 	0.65970 0.20190 0.20470 -65.43100
C 	C 	0.82960 0.36460 0.39380 -52.75200
C 	C 	0.62540 0.03070 0.76320 -112.27800
C 	C 	0.69500 0.62200 0.64200 772.02900
C 	C 	0.71390 0.18670 0.21350 -190.67900
C 	C 	0.65970 0.79530 0.99720 10.21300
C 	C 	0.62540 0.76320 0.73250 -111.50700
C 	C 	0.19070 0.42780 0.29250 -1.03300
C 	C 	0.19070 0.57220 0.86470 -3.24600
C 	C 	0.30760 0.22860 0.03200 547.01000
C 	C 	0.71390 0.78650 0.81330 -190.72800
C 	C 	0.88760 0.57470 0.93350 -4.41500
C 	C 	0.11240 0.35880 0.93350 28.32000
C 	C 	0.09580 0.16130 0.66800 0.29700
C 	C 	0.14590 0.35180 0.97110 97.84000
C 	C 	0.82960 0.02920 0.39380 -42.06600
C 	C 	0.77920 0.71570 0.61840 23.02000
C 	C 	0.31020 0.70610 0.97030 -173.41800
C 	C 	0.26750 0.96730 0.73370 -54.67800
C 	C 	0.28070 0.28660 0.28970 118.32900
C 	C 	0.14820 0.45400 0.33360 8.04000
C 	C 	0.29400 0.43100 0.39310 215.54700
C 	C 	0.90420 0.49330 0.16130 -0.08600
C 	C 	0.34030 0.79530 0.99720 -101.91000
C 	C 	0.64010 0.21460 -0.00000 48.24300
C 	C 	0.34400 0.31400 0.95070 -603.01600
C 	C 	0.30500 0.98000 0.62200 -148.51900
C 	C 	0.80380 0.90290 0.63210 -23.99200
C 	C 	0.19620 0.36790 0.09710 -38.20700
C 	C 	0.16770 0.28120 0.41500 0.03600
C 	C 	0.28070 0.00310 0.28970 1.57300
C 	C 	0.81520 0.04470 0.35220 -47.33700
C 	C 	0.90420 0.66800 0.50670 6.22100
C 	C 	0.63950 0.34210 0.88750 24.05200
C 	C 	0.34030 0.99720 0.20190 -6.94900
C 	C 	0.31020 0.73580 0.70610 62.76800
C 	C 	0.17040 0.63540 0.02920 -78.11300
C 	C 	0.19070 0.86470 0.29250 -1.53900
C 	C 	0.29400 0.96210 0.39310 -2.87400
C 	C 	0.18480 0.64780 0.95530 -84.35200
C 	C 	0.88820 0.16180 0.50020 -6.64600
C 	C 	0.73250 0.23360 0.96730 -69.73100
C 	C 	0.39300 0.32900 0.83700 51.85700
C 	C 	0.80380 0.90290 0.27080 -18.24100
C 	C 	0.28070 0.71030 0.99690 -305.33300
C 	C 	0.71390 0.21350 0.02680 50.84200
C 	C 	0.40180 0.17280 0.17580 -16.49800
C 	C 	0.28610 0.18670 0.97320 -299.75000
C 	C 	0.80380 0.63210 0.90290 7.37600
C 	C 	0.29400 0.03790 0.60690 77.63200
C 	C 	0.62840 0.40170 0.09500 -32.98600
C 	C 	0.34400 0.63670 0.68600 219.74600
C 	C 	0.87320 0.67570 0.11940 -3.66000
C 	C 	0.11180 0.83820 0.49980 0.50200
C 	C 	0.11240 0.06650 0.42530 0.06300
C 	C 	0.13530 0.56420 0.63200 15.79200
C 	C 	0.62540 0.73250 0.96930 28.52600
C 	C 	0.65600 0.68600 0.04930 93.41600
C 	C 	0.61690 0.83760 0.00240 -5.35500
C 	C 	0.86470 0.63200 0.56420 -28.99600
C 	C 	0.75590 0.22130 0.24970 -458.57200
C 	C 	0.67800 0.91640 0.38540 107.42100
C 	C 	0.80380 0.09710 0.72920 -24.50100
C 	C 	0.80380 0.72920 0.63210 -23.70400
C 	C 	0.64680 0.22850 0.25800 169.64500
C 	C 	0.85180 0.33360 0.87960 1.28700
C 	C 	0.19620 0.63210 0.72920 14.35700
C 	C 	0.65970 0.79810 0.79530 -65.68800
C 	C 	0.38310 0.83760 0.00240 23.08900
C 	C 	0.71390 0.81330 0.78650 -192.17400
C 	C 	0.70600 0.96210 0.56900 -405.22400
C 	C 	0.17040 0.97080 0.60620 13.73000
C 	C 	0.14590 0.97110 0.35180 -0.91200
C 	C 	0.77920 0.38160 0.28430 22.24600
C 	C 	0.35320 0.97050 0.22850 2.90800
C 	C 	0.14590 0.97110 0.61930 -14.60500
C 	C 	0.69500 0.02000 0.64200 783.55100
C 	C 	0.82960 0.36460 0.97080 17.41400
C 	C 	0.12680 0.55630 0.88060 38.96000
C 	C 	0.88820 0.49980 0.66160 -7.37000
C 	C 	0.83230 0.28120 0.86620 1.98700
C 	C 	0.32200 0.46900 0.38540 -70.95200
C 	C 	0.37460 0.23680 0.96930 -172.10100
C 	C 	0.14820 0.87960 0.54600 1.32100
C 	C 	0.16770 0.41500 0.28120 0.41100
C 	C 	0.88760 0.35880 0.42530 17.49400
C 	C 	0.80930 0.29250 0.86470 -2.16600
C 	C 	0.81520 0.95530 0.64780 -58.27400
C 	C 	0.87320 0.44370 0.11940 -3.57300
C 	C 	0.67800 0.61460 0.53100 133.80600
C 	C 	0.80930 0.13530 0.70750 -2.04600
C 	C 	0.22080 0.71570 0.09730 33.12100
C 	C 	0.29400 0.56900 0.60690 222.80200
C 	C 	0.62840 0.30670 0.40170 138.02500
C 	C 	0.61690 0.16480 0.00240 -5.47400
C 	C 	0.71390 0.78650 0.97320 50.25700
C 	C 	0.71930 0.28660 0.28970 -210.39400
C 	C 	0.14590 0.61930 0.97110 88.90300
C 	C 	0.11180 0.33840 0.83820 -11.64800
C 	C 	0.87320 0.44370 0.32430 26.97700
C 	C 	0.28610 0.81330 0.78650 111.07400
C 	C 	0.12680 0.32430 0.88060 42.15400
C 	C 	0.37160 0.40170 0.09500 218.51000
C 	C 	0.11180 0.50020 0.33840 2.93800
C 	C 	0.64010 0.78540 -0.00000 46.53900
C 	C 	0.17040 0.97080 0.36460 1.68800
C 	C 	0.69500 0.35800 0.98000 -187.03200
C 	C 	0.37160 0.90500 0.59830 -25.71500
C 	C 	0.65600 0.95070 0.31400 -319.30100
C 	C 	0.63950 0.54540 0.88750 24.16100
C 	C 	0.62540 0.03070 0.26750 -89.48700
C 	C 	0.74450 0.00080 0.72630 543.81000
C 	C 	0.64010 0.00000 0.21460 -114.68200
C 	C 	0.85180 0.87960 0.54600 -21.20100
C 	C 	0.28070 0.00310 0.71340 48.28600
C 	C 	0.11240 0.64120 0.57470 -10.06900
C 	C 	0.66500 0.72350 0.02660 14.55900
C 	C 	0.12680 0.88060 0.55630 -2.68900
C 	C 	0.17040 0.63540 0.60620 32.85500
C 	C 	0.30500 0.62200 0.64200 -435.34200
C 	C 	0.88820 0.66160 0.16180 0.49400
C 	C 	0.30760 0.03200 0.80340 -66.25000
C 	C 	0.17040 0.39380 0.02920 -85.47700
C 	C 	0.37160 0.09500 0.69330 -26.10900
C 	C 	0.73250 0.73370 0.96730 -69.34600
C 	C 	0.83230 0.41500 0.13380 1.59700
C 	C 	0.63950 0.88750 0.34210 -82.93400
C 	C 	0.70600 0.43100 0.03790 95.93400
C 	C 	0.18480 0.95530 0.64780 12.26100
C 	C 	0.81520 0.35220 0.04470 13.31800
C 	C 	0.62540 0.96930 0.23680 -91.40500
C 	C 	0.24410 0.77870 0.02840 -637.71300
C 	C 	0.71930 0.28660 0.99690 54.87500
C 	C 	0.32200 0.61460 0.53100 -73.46500
C 	C 	0.37160 0.69330 0.09500 197.94400
C 	C 	0.14820 0.54600 0.87960 -29.69500
C 	C 	0.09580 0.50670 0.83870 8.88200
C 	C 	0.31020 0.29390 0.02970 -189.92400
C 	C 	0.67800 0.08360 0.61460 138.14200
C 	C 	0.80930 0.57220 0.70750 -2.36700
C 	C 	0.14820 0.87960 0.33360 -2.06700
C 	C 	0.71930 0.71030 0.71340 -214.83800
C 	C 	0.69500 0.64200 0.02000 -189.52900
C 	C 	0.70600 0.03790 0.60690 -403.95800
C 	C 	0.34030 0.20470 0.20190 36.06700
C 	C 	0.85410 0.61930 0.97110 -18.47300
C 	C 	0.80930 0.42780 0.29250 -2.52900
C 	C 	0.13530 0.43580 0.36800 15.33800
C 	C 	0.35320 0.77150 0.74200 -94.97100
C 	C 	0.11240 0.64120 0.06650 26.10600
C 	C 	0.31020 0.26420 0.97030 -183.45800
C 	C 	0.12680 0.32430 0.44370 -12.64700
C 	C 	0.60700 0.32900 0.83700 -7.85700
C 	C 	0.22080 0.90270 0.61840 -6.63400
C 	C 	0.80380 0.09710 0.36790 -18.78400
C 	C 	0.33500 0.30310 0.02660 -95.95700
C 	C 	0.18480 0.69250 0.64780 32.42100
C 	C 	0.37460 0.23680 0.26750 61.78900
C 	C 	0.83230 0.71880 0.13380 1.49600
C 	C 	0.28070 0.71340 0.00310 -307.11400
C 	C 	0.85410 0.97110 0.35180 48.41400
C 	C 	0.67800 0.46900 0.08360 -31.08100
C 	C 	0.26750 0.03270 0.26630 -6.45200
C 	C 	0.28070 0.71030 0.71340 120.35000
C 	C 	0.18480 0.35220 0.30750 31.01200
C 	C 	0.33500 0.02660 0.72350 8.85300
C 	C 	0.85410 0.61930 0.64820 61.30000
C 	C 	0.71390 0.18670 0.97320 50.67800
C 	C 	0.40180 0.82420 0.82720 -15.78800
C 	C 	0.34400 0.36330 0.31400 213.00300
C 	C 	0.14590 0.35180 0.38070 -36.23400
C 	C 	0.09580 0.49330 0.33200 -2.04900
C 	C 	0.71390 0.97320 0.18670 -152.65800
C 	C 	0.85410 0.97110 0.61930 62.84500
C 	C 	0.16770 0.58500 0.86620 4.59500
C 	C 	0.61690 0.16480 0.16240 17.49900
C 	C 	0.37460 0.76320 0.03070 -158.18400
C 	C 	0.31020 0.97030 0.26420 -2.82300
C 	C 	0.66500 0.27650 0.30310 -61.33000
C 	C 	0.69500 0.37800 0.02000 -188.53900
C 	C 	0.29400 0.60690 0.56900 222.95000
C 	C 	0.11240 0.93350 0.35880 0.02700
C 	C 	0.65600 0.31400 0.36330 -387.14700
C 	C 	0.81520 0.35220 0.30750 -56.97000
C 	C 	0.33500 0.97340 0.27650 2.19900
C 	C 	0.33500 0.27650 0.30310 32.08500
C 	C 	0.80380 0.36790 0.09710 7.01000
C 	C 	0.30760 0.80340 0.77140 -192.60900
C 	C 	0.37460 0.26750 0.03070 -175.50200
C 	C 	0.63950 0.65790 0.11250 24.04900
C 	C 	0.68980 0.70610 0.97030 24.71100
C 	C 	0.65970 0.79530 0.79810 -67.77000
C 	C 	0.30760 0.96800 0.77140 -68.37900
C 	C 	0.24410 0.97160 0.22130 -0.44300
C 	C 	0.78900 0.36660 0.04460 -17.44800
C 	C 	0.35320 0.02950 0.25800 0.42700
C 	C 	0.32200 0.38540 0.46900 -70.73000
C 	C 	0.68980 0.97030 0.70610 -119.17200
C 	C 	0.22080 0.28430 0.38160 -14.08900
C 	C 	0.80380 0.27080 0.90290 7.51100
C 	C 	0.12680 0.55630 0.67570 -12.26100
C 	C 	0.19070 0.57220 0.70750 -0.89700
C 	C 	0.14820 0.12040 0.66640 0.46200
C 	C 	0.16770 0.41500 0.13380 4.08400
C 	C 	0.61690 0.00240 0.16480 13.20100
C 	C 	0.86470 0.43580 0.36800 -28.90900
C 	C 	0.85410 0.38070 0.02890 -19.79300
C 	C 	0.31020 0.29390 0.26420 62.10800
C 	C 	0.77920 0.38160 0.09730 -7.28200
C 	C 	0.62840 0.90500 0.59830 139.33900
C 	C 	0.18480 0.35220 0.04470 -92.49200
C 	C 	0.59820 0.99700 0.17280 22.23600
C 	C 	0.16770 0.13380 0.41500 0.61400
C 	C 	0.69500 0.02000 0.37800 629.12900
C 	C 	0.87320 0.32430 0.88060 -3.14700
C 	C 	0.64680 0.25800 0.02950 -39.25800
C 	C 	0.28070 0.99690 0.71030 43.54200
C 	C 	0.26750 0.23360 0.26630 -149.13400
C 	C 	0.83230 0.86620 0.28120 3.95800
C 	C 	0.36050 0.54540 0.65790 56.96100
C 	C 	0.14590 0.02890 0.38070 -1.78700
C 	C 	0.38310 0.83760 0.83520 -9.66500
C 	C 	0.67800 0.91640 0.53100 138.30300
C 	C 	0.21100 0.95540 0.63340 -14.77000
C 	C 	0.19620 0.09710 0.72920 5.48600
C 	C 	0.32200 0.91640 0.53100 -26.15700
C 	C 	0.87320 0.88060 0.55630 27.52000
C 	C 	0.16770 0.58500 0.71880 0.28900
C 	C 	0.18480 0.04470 0.35220 -0.26600
C 	C 	0.11240 0.57470 0.64120 -9.86200
C 	C 	0.85180 0.33360 0.45400 -20.67600
C 	C 	0.30760 0.80340 0.03200 488.54000
C 	C 	0.35990 0.00000 0.78540 39.70500
C 	C 	0.34030 0.00280 0.20470 -2.24400
C 	C 	0.88760 0.57470 0.64120 17.92900
C 	C 	0.68980 0.02970 0.73580 -123.77500
C 	C 	0.22080 0.09730 0.71570 -5.65000
C 	C 	0.88760 0.06650 0.64120 17.93300
C 	C 	0.68980 0.73580 0.02970 22.92700
C 	C 	0.62840 0.40170 0.30670 136.21800
C 	C 	0.12680 0.88060 0.32430 1.89000
C 	C 	0.14590 0.02890 0.64820 -16.29700
C 	C 	0.66500 0.97340 0.69690 -52.59500
C 	C 	0.68980 0.73580 0.70610 -119.94400
C 	C 	0.13530 0.63200 0.06780 -42.17600
C 	C 	0.71930 0.28970 0.00310 59.28000
C 	C 	0.88760 0.35880 0.93350 -4.41900
C 	C 	0.67800 0.53100 0.91640 -31.01100
C 	C 	0.40180 0.99700 0.17280 -0.10600
C 	C 	0.19070 0.29250 0.42780 -0.44200
C 	C 	0.14820 0.54600 0.66640 8.43700
C 	C 	0.75590 0.97160 0.22130 -373.25100
C 	C 	0.88820 0.83820 0.33840 -6.67000
C 	C 	0.80380 0.36790 0.27080 -23.25000
C 	C 	0.38310 0.00240 0.83760 -4.15400
C 	C 	0.74450 0.27370 0.27450 526.96500
C 	C 	0.81520 0.95530 0.30750 -46.93700
C 	C 	0.81520 0.30750 0.95530 14.24000
C 	C 	0.64680 0.02950 0.25800 138.28900
C 	C 	0.37460 0.03070 0.76320 20.76500
C 	C 	0.32200 0.53100 0.61460 -73.68900
C 	C 	0.64680 0.77150 0.74200 170.77300
C 	C 	0.25550 0.72550 0.72630 -297.27400
C 	C 	0.63950 0.65790 0.54540 -102.39800
C 	C 	0.24410 0.97160 0.75030 94.34500
C 	C 	0.64010 0.21460 0.21460 -152.15300
C 	C 	0.73250 0.76640 0.03270 -71.90200
C 	C 	0.65970 0.00280 0.20470 -58.39200
C 	C 	0.24410 0.22130 0.24970 245.28200
C 	C 	0.73250 0.26630 0.23360 262.02900
C 	C 	0.60700 0.83700 0.50800 33.88600
C 	C 	0.88820 0.33840 0.83820 0.35800
C 	C 	0.88820 0.33840 0.50020 -7.41900
N 	N 	0.78850 0.69110 -0.00000 32.41600
N 	N 	0.78850 0.30890 0.30890 -131.15900
N 	N 	0.76000 0.67550 -0.00000 -39.94900
N 	N 	0.24000 0.00000 0.67550 -32.17000
N 	N 	0.21150 0.30890 0.30890 71.76700
N 	N 	0.76000 0.67550 0.67550 155.26500
N 	N 	0.24000 0.67550 0.67550 -88.22300
N 	N 	0.76000 0.32450 -0.00000 -40.03300
N 	N 	0.78850 -0.00000 0.69110 -135.35800
N 	N 	0.21150 0.69110 -0.00000 -190.50700
N 	N 	0.76000 0.32450 0.32450 154.16100
N 	N 	0.21150 0.30890 -0.00000 -208.59100
N 	N 	0.76000 0.00000 0.67550 157.84400
N 	N 	0.78850 0.69110 0.69110 -132.09800
N 	N 	0.24000 0.67550 -0.00000 223.48800
N 	N 	0.24000 0.00000 0.32450 -0.22400
N 	N 	0.78850 0.30890 -0.00000 32.34200
N 	N 	0.24000 0.32450 -0.00000 244.27900
N 	N 	0.24000 0.32450 0.32450 -85.45700
N 	N 	0.21150 0.69110 0.69110 74.14400
N 	N 	0.78850 0.00000 0.30890 -106.97800
N 	N 	0.21150 -0.00000 0.69110 26.00300
N 	N 	0.76000 0.00000 0.32450 124.79700
N 	N 	0.21150 0.00000 0.30890 -1.63400
O 	O 	0.50000 0.66090 0.42340 -0.77700
O 	O 	0.57280 0.81290 0.29290 -7.48300
O 	O 	0.29900 0.73000 0.36500 -0.97100
O 	O 	0.93490 0.33333 0.66666 -0.95400
O 	O 	0.39160 0.84040 0.87400 28.25500
O 	O 	0.63000 0.85310 0.97070 -12.98800
O 	O 	0.92970 0.47900 0.85440 -0.93500
O 	O 	0.50000 0.00650 0.91120 2.24200
O 	O 	0.00000 0.42950 0.67330 -1.01300
O 	O 	0.50000 0.09530 0.00650 2.19000
O 	O 	0.41940 0.81850 0.85960 20.82300
O 	O 	0.70100 0.73000 0.36500 1.59900
O 	O 	0.92970 0.85440 0.37540 0.47500
O 	O 	0.19420 0.70015 0.40030 -1.20100
O 	O 	0.57280 0.52000 0.70710 -9.58800
O 	O 	0.07030 0.52100 0.14560 1.35900
O 	O 	0.60840 0.03360 0.87400 -32.40100
O 	O 	0.19420 0.29985 0.70015 0.47300
O 	O 	0.19420 0.59970 0.29985 0.11100
O 	O 	0.88300 0.48930 0.69800 0.58500
O 	O 	0.39160 0.12600 0.96640 -47.43200
O 	O 	0.09750 0.61941 0.23882 1.15700
O 	O 	0.50000 0.23750 0.57660 -0.76600
O 	O 	0.19420 0.70015 0.29985 0.48000
O 	O 	0.60500 0.71300 0.28700 -0.45300
O 	O 	0.29900 0.63500 0.27000 3.02200
O 	O 	0.60500 0.57400 0.28700 -0.41800
O 	O 	0.00000 0.32670 0.75620 -1.17600
O 	O 	0.37000 0.14690 0.02930 30.15000
O 	O 	0.90250 0.76118 0.38059 0.37300
O 	O 	0.42720 0.81290 0.52000 1.55700
O 	O 	0.63000 0.88240 0.85310 13.49500
O 	O 	0.39160 0.96640 0.84040 5.51100
O 	O 	-0.00000 0.75620 0.42950 -0.98300
O 	O 	0.42720 0.29290 0.81290 -14.51400
O 	O 	0.42720 0.81290 0.29290 1.11700
O 	O 	0.37000 0.88240 0.85310 -9.86700
O 	O 	0.61900 0.17910 0.54290 -1.73800
O 	O 	0.39160 0.15960 0.03360 -47.17100
O 	O 	0.60840 0.12600 0.15960 -27.38300
O 	O 	0.11700 0.69800 0.48930 -1.26600
O 	O 	0.43900 0.66667 0.33334 -0.87800
O 	O 	0.09750 0.38059 0.76118 1.16300
O 	O 	0.11700 0.20870 0.69800 -0.86700
O 	O 	0.50000 0.76250 0.42340 -0.73900
O 	O 	0.29900 0.63500 0.36500 -2.12200
O 	O 	0.43900 0.33333 0.66666 -0.87700
O 	O 	0.60500 0.28700 0.57400 -0.03500
O 	O 	0.39160 0.03360 0.87400 21.60200
O 	O 	0.50000 0.33910 0.76250 -0.66300
O 	O 	0.90250 0.61941 0.38059 0.46000
O 	O 	0.11700 0.20870 0.51070 -0.65300
O 	O 	0.06510 0.33333 0.66666 -0.88700
O 	O 	0.41940 0.81850 0.95890 -40.59600
O 	O 	0.38100 0.63620 0.45710 0.71100
O 	O 	0.39160 0.15960 0.12600 27.84300
O 	O 	0.50000 0.76250 0.33910 -0.69600
O 	O 	0.37000 0.14690 0.11760 -22.95300
O 	O 	0.57280 0.81290 0.52000 -8.97500
O 	O 	0.41940 0.04110 0.18150 -2.27500
O 	O 	0.58060 0.85960 0.81850 -22.07900
O 	O 	0.92970 0.52100 0.37540 0.59700
O 	O 	0.63000 0.11760 0.14690 14.25800
O 	O 	0.58060 0.85960 0.04110 9.68700
O 	O 	0.70100 0.27000 0.63500 1.58800
O 	O 	0.43750 0.85000 0.80950 -9.21000
O 	O 	0.58060 0.81850 0.95890 9.67100
O 	O 	0.50000 0.57660 0.33910 -0.74700
O 	O 	0.60840 0.15960 0.12600 -34.82400
O 	O 	0.41940 0.95890 0.81850 0.49900
O 	O 	0.61900 0.17910 0.63620 -3.50300
O 	O 	0.92970 0.62460 0.14560 -1.08600
O 	O 	0.60500 0.28700 0.71300 -0.42100
O 	O 	0.39500 0.42600 0.71300 -0.35800
O 	O 	0.58060 0.95890 0.14040 -24.82300
O 	O 	0.50000 0.42340 0.76250 -0.68800
O 	O 	0.42720 0.29290 0.48000 4.98900
O 	O 	0.50000 0.91120 0.00650 1.41400
O 	O 	0.07030 0.14560 0.52100 -0.72500
O 	O 	0.60840 0.87400 0.84040 -26.86700
O 	O 	0.09750 0.61941 0.38059 -1.37300
O 	O 	0.60840 0.96640 0.12600 -26.93300
O 	O 	0.92970 0.62460 0.47900 0.63100
O 	O 	0.50000 0.57660 0.23750 -0.70200
O 	O 	0.38100 0.82090 0.36380 -0.98100
O 	O 	0.07030 0.47900 0.85440 1.34500
O 	O 	0.61900 0.82090 0.45710 -3.33400
O 	O 	0.39160 0.03360 0.15960 1.45100
O 	O 	0.80580 0.29985 0.59970 0.84900
O 	O 	0.88300 0.20870 0.51070 0.41100
O 	O 	0.43750 0.80950 0.95950 28.10600
O 	O 	0.88300 0.20870 0.69800 0.50700
O 	O 	0.43750 0.85000 0.04050 22.16700
O 	O 	0.70100 0.63500 0.36500 1.79000
O 	O 	0.37000 0.11760 0.14690 -10.55900
O 	O 	0.42720 0.48000 0.29290 6.29100
O 	O 	0.90250 0.23882 0.61941 0.39000
O 	O 	0.92970 0.37540 0.52100 0.63600
O 	O 	0.39160 0.84040 0.96640 -45.82800
O 	O 	0.41940 0.85960 0.81850 12.35700
O 	O 	0.38100 0.54290 0.17910 -4.58700
O 	O 	0.61900 0.36380 0.82090 0.10100
O 	O 	0.39500 0.71300 0.28700 -0.17000
O 	O 	0.56250 0.15000 0.95950 -12.37200
O 	O 	0.61900 0.82090 0.36380 -1.81000
O 	O 	-0.00000 0.24380 0.67330 -1.11100
O 	O 	0.39500 0.28700 0.71300 -0.17300
O 	O 	0.57280 0.18710 0.70710 -9.61700
O 	O 	0.38100 0.63620 0.17910 -3.43000
O 	O 	0.41940 0.95890 0.14040 5.31700
O 	O 	0.38100 0.36380 0.54290 0.58300
O 	O 	0.07030 0.37540 0.85440 1.37600
O 	O 	0.37000 0.97070 0.11760 -9.90400
O 	O 	0.43750 0.80950 0.85000 -20.53800
O 	O 	0.19420 0.40030 0.70015 0.09600
O 	O 	0.07030 0.47900 0.62460 -1.30200
O 	O 	0.43750 0.95950 0.15000 -9.90200
O 	O 	0.37000 0.11760 0.97070 31.61900
O 	O 	0.57280 0.29290 0.81290 3.50300
O 	O 	0.39500 0.57400 0.28700 -0.33300
O 	O 	0.58060 0.04110 0.18150 -15.39200
O 	O 	0.56100 0.33333 0.66666 -0.84700
O 	O 	0.50000 0.09530 0.08880 -0.56300
O 	O 	0.93490 0.66667 0.33334 -1.00700
O 	O 	0.63000 0.02930 0.88240 21.45400
O 	O 	0.19420 0.29985 0.59970 -1.17700
O 	O 	0.00000 0.42950 0.75620 -1.11400
O 	O 	0.92970 0.14560 0.62460 0.50700
O 	O 	0.56250 0.19050 0.04050 -15.95700
O 	O 	0.43750 0.15000 0.19050 -9.63400
O 	O 	0.58060 0.18150 0.04110 11.06500
O 	O 	0.42720 0.70710 0.18710 -13.10800
O 	O 	0.70100 0.36500 0.73000 -1.28100
O 	O 	0.60840 0.12600 0.96640 17.87000
O 	O 	0.58060 0.04110 0.85960 -28.38000
O 	O 	0.38100 0.17910 0.63620 0.58000
O 	O 	0.60500 0.42600 0.71300 -0.42400
O 	O 	0.56250 0.95950 0.80950 13.08600
O 	O 	0.39160 0.96640 0.12600 11.09500
O 	O 	0.39160 0.87400 0.03360 -40.74500
O 	O 	0.39500 0.71300 0.42600 -0.94500
O 	O 	0.42720 0.18710 0.48000 -0.54800
O 	O 	0.61900 0.63620 0.45710 -2.77000
O 	O 	0.57280 0.48000 0.18710 3.35000
O 	O 	0.38100 0.82090 0.45710 0.39600
O 	O 	0.00000 0.67330 0.24380 -1.08400
O 	O 	0.39500 0.28700 0.57400 -0.91500
O 	O 	0.63000 0.88240 0.02930 -13.87800
O 	O 	0.50000 0.08880 0.09530 -0.38600
O 	O 	0.50000 0.00650 0.09530 3.18100
O 	O 	0.56250 0.80950 0.85000 23.09200
O 	O 	0.43750 0.04050 0.19050 -0.88800
O 	O 	0.00000 0.57050 0.24380 -1.07500
O 	O 	0.56250 0.95950 0.15000 17.79200
O 	O 	0.58060 0.95890 0.81850 -22.94300
O 	O 	0.50000 0.23750 0.66090 -0.71400
O 	O 	0.39160 0.12600 0.15960 17.71400
O 	O 	0.60840 0.15960 0.03360 20.37200
O 	O 	0.43750 0.95950 0.80950 -0.95300
O 	O 	0.90250 0.61941 0.23882 -1.04700
O 	O 	0.38100 0.45710 0.63620 0.90300
O 	O 	0.07030 0.52100 0.37540 -1.29200
O 	O 	0.50000 0.99350 0.90470 -2.64800
O 	O 	-0.00000 0.75620 0.32670 -1.04100
O 	O 	0.57280 0.29290 0.48000 -8.92200
O 	O 	0.88300 0.30200 0.79130 -0.97800
O 	O 	0.56100 0.66667 0.33334 -0.84700
O 	O 	0.58060 0.81850 0.85960 -29.08900
O 	O 	0.57280 0.18710 0.48000 -6.83800
O 	O 	0.57280 0.52000 0.81290 3.29200
O 	O 	0.56250 0.19050 0.15000 22.01800
O 	O 	0.06510 0.66667 0.33334 -0.87500
O 	O 	0.88300 0.79130 0.48930 0.55000
O 	O 	0.37000 0.97070 0.85310 1.23700
O 	O 	0.42720 0.52000 0.70710 6.33600
O 	O 	0.07030 0.62460 0.47900 -1.28400
O 	O 	0.80580 0.40030 0.70015 -0.05900
O 	O 	0.57280 0.48000 0.29290 -9.45400
O 	O 	0.41940 0.85960 0.04110 -36.52200
O 	O 	0.88300 0.69800 0.48930 0.57400
O 	O 	0.07030 0.85440 0.37540 -0.60800
O 	O 	0.80580 0.59970 0.29985 -0.06200
O 	O 	0.50000 0.99350 0.08880 -3.88900
O 	O 	0.60840 0.84040 0.87400 -35.82600
O 	O 	0.09750 0.76118 0.38059 -0.80000
O 	O 	0.56250 0.04050 0.19050 4.01100
O 	O 	0.63000 0.97070 0.11760 21.36300
O 	O 	0.61900 0.45710 0.63620 -2.84000
O 	O 	0.43750 0.15000 0.95950 28.12500
O 	O 	0.07030 0.62460 0.14560 1.29800
O 	O 	0.90250 0.38059 0.76118 -0.99500
O 	O 	0.42720 0.48000 0.18710 -14.96000
O 	O 	0.41940 0.14040 0.95890 -42.07100
O 	O 	0.00000 0.32670 0.57050 -0.97300
O 	O 	0.50000 0.08880 0.99350 -2.90300
O 	O 	0.70100 0.36500 0.63500 1.78500
O 	O 	0.88300 0.51070 0.20870 -0.99000
O 	O 	0.41940 0.18150 0.14040 20.66500
O 	O 	0.50000 0.90470 0.99350 -1.74500
O 	O 	0.11700 0.48930 0.79130 1.20900
O 	O 	0.61900 0.54290 0.17910 0.04600
O 	O 	0.50000 0.66090 0.23750 -0.68600
O 	O 	0.11700 0.48930 0.69800 -1.32100
O 	O 	0.50000 0.33910 0.57660 -0.77500
O 	O 	0.56250 0.85000 0.04050 -13.44200
O 	O 	0.43750 0.19050 0.15000 -20.36000
O 	O 	0.63000 0.14690 0.11760 23.38800
O 	O 	0.92970 0.47900 0.62460 0.62900
O 	O 	0.61900 0.63620 0.17910 0.04700
O 	O 	0.11700 0.30200 0.51070 -1.27200
O 	O 	0.37000 0.88240 0.02930 24.90600
O 	O 	0.63000 0.02930 0.14690 5.17100
O 	O 	0.58060 0.14040 0.18150 -22.51700
O 	O 	0.88300 0.69800 0.20870 -1.00000
O 	O 	0.88300 0.79130 0.30200 0.38600
O 	O 	0.37000 0.02930 0.14690 0.29000
O 	O 	0.60840 0.96640 0.84040 -25.52500
O 	O 	0.09750 0.23882 0.61941 -0.81300
O 	O 	0.11700 0.51070 0.30200 -1.32500
O 	O 	0.42720 0.18710 0.70710 3.33500
O 	O 	0.29900 0.36500 0.73000 3.02500
O 	O 	0.00000 0.24380 0.57050 -1.02200
O 	O 	0.50000 0.90470 0.91120 -0.14300
O 	O 	0.63000 0.11760 0.97070 -12.17000
O 	O 	0.60500 0.71300 0.42600 -0.01000
O 	O 	0.80580 0.70015 0.29985 -0.13400
O 	O 	0.80580 0.29985 0.70015 -0.10700
O 	O 	0.90250 0.38059 0.61941 0.48100
O 	O 	0.29900 0.27000 0.63500 -0.97700
O 	O 	0.58060 0.14040 0.95890 9.09200
O 	O 	0.63000 0.85310 0.88240 24.49000
O 	O 	0.07030 0.37540 0.52100 -1.28600
O 	O 	0.50000 0.42340 0.66090 -0.75600
O 	O 	0.39160 0.87400 0.84040 17.54900
O 	O 	0.37000 0.85310 0.88240 -22.96700
O 	O 	0.38100 0.54290 0.36380 0.77400
O 	O 	0.38100 0.36380 0.82090 -4.44800
O 	O 	0.60840 0.03360 0.15960 -15.00100
O 	O 	0.56250 0.85000 0.80950 13.55400
O 	O 	0.11700 0.79130 0.48930 -0.74800
O 	O 	0.41940 0.14040 0.18150 12.64800
O 	O 	0.11700 0.30200 0.79130 1.25500
O 	O 	0.50000 0.91120 0.90470 -0.12300
O 	O 	0.92970 0.52100 0.14560 -1.08600
O 	O 	0.42720 0.70710 0.52000 5.03200
O 	O 	0.60840 0.84040 0.96640 17.89300
O 	O 	0.80580 0.70015 0.40030 0.87800
O 	O 	0.57280 0.70710 0.18710 3.26100
O 	O 	0.92970 0.37540 0.85440 -0.95700
O 	O 	0.11700 0.69800 0.20870 1.16700
O 	O 	0.61900 0.54290 0.36380 -2.77500
O 	O 	0.61900 0.45710 0.82090 0.09000
O 	O 	0.43750 0.19050 0.04050 26.91000
O 	O 	0.56250 0.80950 0.95950 -12.73800
O 	O 	0.88300 0.30200 0.51070 0.58600
O 	O 	0.29900 0.36500 0.63500 -2.11900
O 	O 	0.61900 0.36380 0.54290 -2.72600
O 	O 	0.38100 0.17910 0.54290 -1.25100
O 	O 	0.92970 0.14560 0.52100 0.42500
O 	O 	0.58060 0.18150 0.14040 -28.32400
O 	O 	0.56250 0.15000 0.19050 14.10000
O 	O 	0.88300 0.51070 0.30200 0.55500
O 	O 	0.63000 0.97070 0.85310 14.27500
O 	O 	0.07030 0.85440 0.47900 -0.69400
O 	O 	0.37000 0.02930 0.88240 -19.75600
O 	O 	0.07030 0.14560 0.62460 -0.83900
O 	O 	0.00000 0.67330 0.42950 -0.94000
O 	O 	0.11700 0.79130 0.30200 -0.70200
O 	O 	0.38100 0.45710 0.82090 -3.51300
O 	O 	0.88300 0.48930 0.79130 -0.94200
O 	O 	0.42720 0.52000 0.81290 -13.68200
O 	O 	0.60840 0.87400 0.03360 17.89000
O 	O 	0.37000 0.85310 0.97070 31.92800
O 	O 	0.11700 0.51070 0.20870 1.27000
O 	O 	0.56250 0.04050 0.85000 19.33900
O 	O 	-0.00000 0.57050 0.32670 -0.98600
O 	O 	0.41940 0.04110 0.85960 13.19800
O 	O 	0.63000 0.14690 0.02930 -16.46200
O 	O 	0.57280 0.70710 0.52000 -8.86500
O 	O 	0.92970 0.85440 0.47900 0.59800
O 	O 	0.70100 0.63500 0.27000 -1.29300
O 	O 	0.09750 0.38059 0.61941 -1.37400
O 	O 	0.43750 0.04050 0.85000 -19.03000
O 	O 	0.41940 0.18150 0.04110 -41.93200
F 	F 	0.59300 0.73500 0.61200 -121.46000
F 	F 	0.69000 0.41800 0.51920 -138.87900
F 	F 	0.31000 0.51920 0.41800 78.62000
F 	F 	0.69000 0.10120 0.51920 -114.96300
F 	F 	0.40700 0.26500 0.38800 67.27600
F 	F 	0.31000 0.51920 0.10120 -219.88800
F 	F 	0.31000 0.48080 0.89880 -203.88900
F 	F 	0.40700 0.38800 0.26500 67.65400
F 	F 	0.59300 0.87700 0.26500 -98.79500
F 	F 	0.59300 0.73500 0.12300 30.47400
F 	F 	0.40700 0.26500 0.87700 -188.69500
F 	F 	0.59300 0.12300 0.73500 -123.13000
F 	F 	0.31000 0.58200 0.10120 -203.44900
F 	F 	0.69000 0.10120 0.58200 -140.75400
F 	F 	0.40700 0.12300 0.38800 1.41100
F 	F 	0.59300 0.26500 0.38800 -120.53600
F 	F 	0.59300 0.87700 0.61200 -121.81100
F 	F 	0.31000 0.89880 0.41800 2.22900
F 	F 	0.31000 0.41800 0.89880 -220.03000
F 	F 	0.31000 0.89880 0.48080 26.93300
F 	F 	0.59300 0.38800 0.26500 -118.41700
F 	F 	0.31000 0.48080 0.58200 80.87700
F 	F 	0.69000 0.58200 0.10120 35.99200
F 	F 	0.69000 0.58200 0.48080 -139.77300
F 	F 	0.59300 0.26500 0.87700 30.53700
F 	F 	0.31000 0.41800 0.51920 78.44200
F 	F 	0.59300 0.61200 0.87700 30.75800
F 	F 	0.69000 0.89880 0.41800 -115.53800
F 	F 	0.69000 0.51920 0.41800 -138.86300
F 	F 	0.69000 0.51920 0.10120 35.83900
F 	F 	0.59300 0.38800 0.12300 30.26000
F 	F 	0.69000 0.48080 0.58200 -139.77700
F 	F 	0.40700 0.73500 0.61200 69.47600
F 	F 	0.31000 0.10120 0.51920 2.52500
F 	F 	0.40700 0.61200 0.87700 -175.78800
F 	F 	0.40700 0.87700 0.61200 24.98700
F 	F 	0.40700 0.61200 0.73500 69.87300
F 	F 	0.31000 0.10120 0.58200 27.55000
F 	F 	0.59300 0.12300 0.38800 -97.56400
F 	F 	0.59300 0.61200 0.73500 -119.24600
F 	F 	0.69000 0.48080 0.89880 35.68500
F 	F 	0.69000 0.89880 0.48080 -141.03000
F 	F 	0.40700 0.87700 0.26500 0.49300
F 	F 	0.40700 0.38800 0.12300 -191.27200
F 	F 	0.69000 0.41800 0.89880 35.51500
F 	F 	0.40700 0.12300 0.73500 23.96100
F 	F 	0.40700 0.73500 0.12300 -173.33100
F 	F 	0.31000 0.58200 0.48080 80.69700
