data_XODNUB_clean

_audit_creation_method RASPA-1.0
_audit_creation_date 2022-6-23
_audit_author_name 'Xiaoqi Zhang'

_cell_length_a    38.3235
_cell_length_b    28.36
_cell_length_c    29.0442
_cell_angle_alpha 70.86
_cell_angle_beta  88.158
_cell_angle_gamma 73.63
_cell_volume      28549.6

_symmetry_cell_setting          triclinic
_symmetry_space_group_name_Hall 'P 1'
_symmetry_space_group_name_H-M  'P 1'
_symmetry_Int_Tables_number     1

_symmetry_equiv_pos_as_xyz 'x,y,z'

loop_
_atom_site_label
_atom_site_type_symbol
_atom_site_fract_x
_atom_site_fract_y
_atom_site_fract_z
_atom_site_charge
C        C      0.182233333333     0.051600000000     0.268800000000    -0.392      
C        C      0.189866666667     0.033700000000     0.312800000000     0.013      
C        C      0.198933333333     0.014800000000     0.365200000000    -0.018      
C        C      0.179966666667     0.041900000000     0.393850000000    -0.055      
H        H      0.160733333333     0.071750000000     0.380100000000     0.029      
C        C      0.189600000000     0.024650000000     0.443450000000     0.02       
H        H      0.177233333333     0.044000000000     0.462450000000     0.06       
C        C      0.216366666667     0.480700000000     0.464800000000    -0.048      
H        H      0.221200000000     0.468450000000     0.498500000000     0.13       
C        C      0.237033333333     0.453300000000     0.435650000000     0.012      
H        H      0.256400000000     0.423700000000     0.449750000000     0.123      
C        C      0.228166666667     0.470900000000     0.385750000000    -0.052      
H        H      0.241800000000     0.453350000000     0.366150000000     0.09       
C        C      0.138033333333     0.201700000000     0.274700000000    -0.437      
C        C      0.106900000000     0.228150000000     0.261150000000     0.032      
C        C      0.069366666667     0.259350000000     0.248400000000    -0.055      
C        C      0.055066666667     0.281250000000     0.200600000000    -0.005      
H        H      0.069700000000     0.275900000000     0.175550000000     0.08       
C        C      0.019266666667     0.311050000000     0.189850000000    -0.058      
H        H      0.009800000000     0.325700000000     0.157600000000     0.155      
C        C      0.330866666667     0.319150000000     0.226550000000     0.019      
H        H      0.306600000000     0.338850000000     0.218800000000     0.056      
C        C      0.010733333333     0.298800000000     0.274500000000    -0.064      
H        H      0.329133333333     0.305350000000     0.298900000000     0.127      
C        C      0.047066666667     0.268050000000     0.286150000000    -0.001      
H        H      0.056400000000     0.253500000000     0.318500000000     0.069      
C        C      0.271333333333     0.108200000000     0.271250000000     0.085      
H        H      0.266233333333     0.127650000000     0.238300000000     0.038      
C        C      0.265166666667     0.076500000000     0.347800000000     0.042      
H        H      0.255033333333     0.070050000000     0.377950000000     0.072      
C        C      0.299700000000     0.053150000000     0.339450000000     0.006      
H        H      0.317366666667     0.027750000000     0.362600000000     0.139      
C        C      0.002966666667     0.061800000000     0.263450000000    -0.068      
H        H      0.023033333333     0.068050000000     0.277700000000     0.091      
H        H      0.331433333333     0.085250000000     0.229950000000     0.118      
C        C      0.014266666667     0.005950000000     0.263450000000    -0.104      
H        H      0.018233333333     0.482450000000     0.296950000000     0.141      
H        H      0.037166666667     0.499500000000     0.248100000000     0.094      
C        C      0.178133333333     0.088700000000     0.084550000000     0.049      
H        H      0.192300000000     0.054300000000     0.091900000000     0.082      
C        C      0.165400000000     0.122550000000     0.038550000000     0.041      
H        H      0.169700000000     0.116150000000     0.009150000000     0.074      
C        C      0.146933333333     0.160850000000     0.092500000000     0.128      
H        H      0.135700000000     0.186200000000     0.106250000000     0.022      
C        C      0.128166666667     0.216600000000     0.006200000000    -0.091      
H        H      0.110133333333     0.239050000000     0.019800000000     0.171      
H        H      0.115666666667     0.209450000000     0.481850000000     0.121      
C        C      0.155333333333     0.244700000000     0.481750000000    -0.084      
H        H      0.142400000000     0.277600000000     0.457600000000     0.126      
H        H      0.171666666667     0.224000000000     0.464850000000     0.101      
C        C      0.078500000000     0.138750000000     0.175500000000     0.103      
C        C      0.053866666667     0.168400000000     0.128600000000     0.828      
C        C      0.087666666667     0.051000000000     0.339450000000     0.125      
C        C      0.067500000000     0.036150000000     0.387150000000     0.826      
C        C      0.109433333333     0.308900000000     0.356600000000     0.129      
C        C      0.080600000000     0.351700000000     0.369400000000     0.818      
C        C      0.214666666667     0.177800000000     0.406250000000     0.076      
C        C      0.248200000000     0.151400000000     0.442900000000     0.978      
N        N      0.248000000000     0.110550000000     0.305100000000    -0.19       
N        N      0.303666666667     0.073800000000     0.290750000000    -0.091      
N        N      0.166866666667     0.113150000000     0.117500000000    -0.173      
N        N      0.145133333333     0.167600000000     0.045000000000    -0.091      
O        O      0.096000000000     0.163200000000     0.189250000000    -0.275      
O        O      0.077766666667     0.092600000000     0.194600000000    -0.247      
O        O      0.092200000000     0.095750000000     0.327800000000    -0.249      
O        O      0.096733333333     0.017700000000     0.319100000000    -0.244      
O        O      0.128766666667     0.324100000000     0.322200000000    -0.321      
O        O      0.109066666667     0.264100000000     0.379500000000    -0.227      
O        O      0.213366666667     0.221550000000     0.378150000000    -0.241      
O        O      0.193566666667     0.151350000000     0.409400000000    -0.246      
F        F      0.046566666667     0.219500000000     0.116750000000    -0.435      
F        F      0.022266666667     0.157600000000     0.130950000000    -0.416      
F        F      0.069266666667     0.156800000000     0.091000000000    -0.462      
F        F      0.054033333333     0.496900000000     0.391100000000    -0.413      
F        F      0.090533333333     0.021550000000     0.425800000000    -0.462      
F        F      0.039500000000     0.075150000000     0.389400000000    -0.444      
F        F      0.085133333333     0.349500000000     0.414500000000    -0.316      
F        F      0.082200000000     0.400350000000     0.343500000000    -0.471      
F        F      0.047233333333     0.353550000000     0.355700000000    -0.416      
F        F      0.278500000000     0.146850000000     0.422350000000    -0.459      
F        F      0.252100000000     0.101900000000     0.466250000000    -0.421      
F        F      0.240633333333     0.160500000000     0.481850000000    -0.319      
Ag       Ag     0.125810000000     0.028465000000     0.245770000000     0.476      
Ag       Ag     0.177406666667     0.084585000000     0.194150000000     0.502      
Ag       Ag     0.129763333333     0.123410000000     0.264330000000     0.481      
Ag       Ag     0.192480000000     0.156035000000     0.290385000000     0.454      
Ag       Ag     0.141226666667     0.191125000000     0.358215000000     0.508      
Ag       Ag     0.179526666667     0.265620000000     0.305920000000     0.472      
F        F      0.071333333333     0.333000000000     0.418500000000    -0.141      
F        F      0.253766666667     0.178000000000     0.469500000000    -0.232      
C        C      0.151100000000     0.448400000000     0.231200000000    -0.391      
C        C      0.143466666667     0.466300000000     0.187200000000     0.014      
C        C      0.134400000000     0.485200000000     0.134800000000    -0.017      
C        C      0.153366666667     0.458100000000     0.106150000000    -0.054      
H        H      0.172600000000     0.428250000000     0.119900000000     0.029      
C        C      0.143733333333     0.475350000000     0.056550000000     0.02       
H        H      0.156100000000     0.456000000000     0.037550000000     0.06       
C        C      0.116966666667     0.019300000000     0.035200000000    -0.048      
H        H      0.112133333333     0.031550000000     0.001500000000     0.13       
C        C      0.096300000000     0.046700000000     0.064350000000     0.012      
H        H      0.076933333333     0.076300000000     0.050250000000     0.123      
C        C      0.105166666667     0.029100000000     0.114250000000    -0.052      
H        H      0.091533333333     0.046650000000     0.133850000000     0.09       
C        C      0.195300000000     0.298300000000     0.225300000000    -0.437      
C        C      0.226433333333     0.271850000000     0.238850000000     0.032      
C        C      0.263966666667     0.240650000000     0.251600000000    -0.055      
C        C      0.278266666667     0.218750000000     0.299400000000    -0.005      
H        H      0.263633333333     0.224100000000     0.324450000000     0.08       
C        C      0.314066666667     0.188950000000     0.310150000000    -0.058      
H        H      0.323533333333     0.174300000000     0.342400000000     0.155      
C        C      0.002466666667     0.180850000000     0.273450000000     0.019      
H        H      0.026733333333     0.161150000000     0.281200000000     0.056      
C        C      0.322600000000     0.201200000000     0.225500000000    -0.064      
H        H      0.004200000000     0.194650000000     0.201100000000     0.127      
C        C      0.286266666667     0.231950000000     0.213850000000    -0.001      
H        H      0.276933333333     0.246500000000     0.181500000000     0.069      
C        C      0.062000000000     0.391800000000     0.228750000000     0.085      
H        H      0.067100000000     0.372350000000     0.261700000000     0.038      
C        C      0.068166666667     0.423500000000     0.152200000000     0.042      
H        H      0.078300000000     0.429950000000     0.122050000000     0.072      
C        C      0.033633333333     0.446850000000     0.160550000000     0.006      
H        H      0.015966666667     0.472250000000     0.137400000000     0.139      
C        C      0.330366666667     0.438200000000     0.236550000000    -0.068      
H        H      0.310300000000     0.431950000000     0.222300000000     0.091      
H        H      0.001900000000     0.414750000000     0.270050000000     0.118      
C        C      0.319066666667     0.494050000000     0.236550000000    -0.104      
H        H      0.315100000000     0.017550000000     0.203050000000     0.141      
H        H      0.296166666667     0.000500000000     0.251900000000     0.094      
C        C      0.155200000000     0.411300000000     0.415450000000     0.049      
H        H      0.141033333333     0.445700000000     0.408100000000     0.082      
C        C      0.167933333333     0.377450000000     0.461450000000     0.041      
H        H      0.163633333333     0.383850000000     0.490850000000     0.074      
C        C      0.186400000000     0.339150000000     0.407500000000     0.128      
H        H      0.197633333333     0.313800000000     0.393750000000     0.022      
C        C      0.205166666667     0.283400000000     0.493800000000    -0.091      
H        H      0.223200000000     0.260950000000     0.480200000000     0.171      
H        H      0.217666666667     0.290550000000     0.018150000000     0.121      
C        C      0.178000000000     0.255300000000     0.018250000000    -0.084      
H        H      0.190933333333     0.222400000000     0.042400000000     0.126      
H        H      0.161666666667     0.276000000000     0.035150000000     0.101      
C        C      0.254833333333     0.361250000000     0.324500000000     0.103      
C        C      0.279466666667     0.331600000000     0.371400000000     0.828      
C        C      0.245666666667     0.449000000000     0.160550000000     0.125      
C        C      0.265833333333     0.463850000000     0.112850000000     0.826      
C        C      0.223900000000     0.191100000000     0.143400000000     0.129      
C        C      0.252733333333     0.148300000000     0.130600000000     0.818      
C        C      0.118666666667     0.322200000000     0.093750000000     0.076      
C        C      0.085133333333     0.348600000000     0.057100000000     0.978      
N        N      0.085333333333     0.389450000000     0.194900000000    -0.19       
N        N      0.029666666667     0.426200000000     0.209250000000    -0.091      
N        N      0.166466666667     0.386850000000     0.382500000000    -0.173      
N        N      0.188200000000     0.332400000000     0.455000000000    -0.091      
O        O      0.237333333333     0.336800000000     0.310750000000    -0.275      
O        O      0.255566666667     0.407400000000     0.305400000000    -0.247      
O        O      0.241133333333     0.404250000000     0.172200000000    -0.249      
O        O      0.236600000000     0.482300000000     0.180900000000    -0.244      
O        O      0.204566666667     0.175900000000     0.177800000000    -0.321      
O        O      0.224266666667     0.235900000000     0.120500000000    -0.227      
O        O      0.119966666667     0.278450000000     0.121850000000    -0.241      
O        O      0.139766666667     0.348650000000     0.090600000000    -0.246      
F        F      0.286766666667     0.280500000000     0.383250000000    -0.435      
F        F      0.311066666667     0.342400000000     0.369050000000    -0.416      
F        F      0.264066666667     0.343200000000     0.409000000000    -0.462      
F        F      0.279300000000     0.003100000000     0.108900000000    -0.413      
F        F      0.242800000000     0.478450000000     0.074200000000    -0.462      
F        F      0.293833333333     0.424850000000     0.110600000000    -0.444      
F        F      0.248200000000     0.150500000000     0.085500000000    -0.316      
F        F      0.251133333333     0.099650000000     0.156500000000    -0.471      
F        F      0.286100000000     0.146450000000     0.144300000000    -0.416      
F        F      0.054833333333     0.353150000000     0.077650000000    -0.459      
F        F      0.081233333333     0.398100000000     0.033750000000    -0.421      
F        F      0.092700000000     0.339500000000     0.018150000000    -0.319      
Ag       Ag     0.207523333333     0.471535000000     0.254230000000     0.476      
Ag       Ag     0.155926666667     0.415415000000     0.305850000000     0.502      
Ag       Ag     0.203570000000     0.376590000000     0.235670000000     0.481      
Ag       Ag     0.140853333333     0.343965000000     0.209615000000     0.454      
Ag       Ag     0.192106666667     0.308875000000     0.141785000000     0.508      
Ag       Ag     0.153806666667     0.234380000000     0.194080000000     0.472      
F        F      0.262000000000     0.167000000000     0.081500000000    -0.141      
F        F      0.079566666667     0.322000000000     0.030500000000    -0.232      
C        C      0.182233333333     0.051600000000     0.768800000000    -0.392      
C        C      0.189866666667     0.033700000000     0.812800000000     0.013      
C        C      0.198933333333     0.014800000000     0.865200000000    -0.018      
C        C      0.179966666667     0.041900000000     0.893850000000    -0.055      
H        H      0.160733333333     0.071750000000     0.880100000000     0.029      
C        C      0.189600000000     0.024650000000     0.943450000000     0.02       
H        H      0.177233333333     0.044000000000     0.962450000000     0.06       
C        C      0.216366666667     0.480700000000     0.964800000000    -0.048      
H        H      0.221200000000     0.468450000000     0.998500000000     0.13       
C        C      0.237033333333     0.453300000000     0.935650000000     0.012      
H        H      0.256400000000     0.423700000000     0.949750000000     0.123      
C        C      0.228166666667     0.470900000000     0.885750000000    -0.052      
H        H      0.241800000000     0.453350000000     0.866150000000     0.09       
C        C      0.138033333333     0.201700000000     0.774700000000    -0.437      
C        C      0.106900000000     0.228150000000     0.761150000000     0.032      
C        C      0.069366666667     0.259350000000     0.748400000000    -0.055      
C        C      0.055066666667     0.281250000000     0.700600000000    -0.005      
H        H      0.069700000000     0.275900000000     0.675550000000     0.08       
C        C      0.019266666667     0.311050000000     0.689850000000    -0.058      
H        H      0.009800000000     0.325700000000     0.657600000000     0.155      
C        C      0.330866666667     0.319150000000     0.726550000000     0.019      
H        H      0.306600000000     0.338850000000     0.718800000000     0.056      
C        C      0.010733333333     0.298800000000     0.774500000000    -0.064      
H        H      0.329133333333     0.305350000000     0.798900000000     0.127      
C        C      0.047066666667     0.268050000000     0.786150000000    -0.001      
H        H      0.056400000000     0.253500000000     0.818500000000     0.069      
C        C      0.271333333333     0.108200000000     0.771250000000     0.085      
H        H      0.266233333333     0.127650000000     0.738300000000     0.038      
C        C      0.265166666667     0.076500000000     0.847800000000     0.042      
H        H      0.255033333333     0.070050000000     0.877950000000     0.072      
C        C      0.299700000000     0.053150000000     0.839450000000     0.006      
H        H      0.317366666667     0.027750000000     0.862600000000     0.139      
C        C      0.002966666667     0.061800000000     0.763450000000    -0.068      
H        H      0.023033333333     0.068050000000     0.777700000000     0.091      
H        H      0.331433333333     0.085250000000     0.729950000000     0.118      
C        C      0.014266666667     0.005950000000     0.763450000000    -0.104      
H        H      0.018233333333     0.482450000000     0.796950000000     0.141      
H        H      0.037166666667     0.499500000000     0.748100000000     0.094      
C        C      0.178133333333     0.088700000000     0.584550000000     0.049      
H        H      0.192300000000     0.054300000000     0.591900000000     0.082      
C        C      0.165400000000     0.122550000000     0.538550000000     0.041      
H        H      0.169700000000     0.116150000000     0.509150000000     0.074      
C        C      0.146933333333     0.160850000000     0.592500000000     0.128      
H        H      0.135700000000     0.186200000000     0.606250000000     0.022      
C        C      0.128166666667     0.216600000000     0.506200000000    -0.091      
H        H      0.110133333333     0.239050000000     0.519800000000     0.171      
H        H      0.115666666667     0.209450000000     0.981850000000     0.121      
C        C      0.155333333333     0.244700000000     0.981750000000    -0.084      
H        H      0.142400000000     0.277600000000     0.957600000000     0.126      
H        H      0.171666666667     0.224000000000     0.964850000000     0.101      
C        C      0.078500000000     0.138750000000     0.675500000000     0.103      
C        C      0.053866666667     0.168400000000     0.628600000000     0.828      
C        C      0.087666666667     0.051000000000     0.839450000000     0.125      
C        C      0.067500000000     0.036150000000     0.887150000000     0.826      
C        C      0.109433333333     0.308900000000     0.856600000000     0.129      
C        C      0.080600000000     0.351700000000     0.869400000000     0.818      
C        C      0.214666666667     0.177800000000     0.906250000000     0.076      
C        C      0.248200000000     0.151400000000     0.942900000000     0.978      
N        N      0.248000000000     0.110550000000     0.805100000000    -0.19       
N        N      0.303666666667     0.073800000000     0.790750000000    -0.091      
N        N      0.166866666667     0.113150000000     0.617500000000    -0.173      
N        N      0.145133333333     0.167600000000     0.545000000000    -0.091      
O        O      0.096000000000     0.163200000000     0.689250000000    -0.275      
O        O      0.077766666667     0.092600000000     0.694600000000    -0.247      
O        O      0.092200000000     0.095750000000     0.827800000000    -0.249      
O        O      0.096733333333     0.017700000000     0.819100000000    -0.244      
O        O      0.128766666667     0.324100000000     0.822200000000    -0.321      
O        O      0.109066666667     0.264100000000     0.879500000000    -0.227      
O        O      0.213366666667     0.221550000000     0.878150000000    -0.241      
O        O      0.193566666667     0.151350000000     0.909400000000    -0.246      
F        F      0.046566666667     0.219500000000     0.616750000000    -0.435      
F        F      0.022266666667     0.157600000000     0.630950000000    -0.416      
F        F      0.069266666667     0.156800000000     0.591000000000    -0.462      
F        F      0.054033333333     0.496900000000     0.891100000000    -0.413      
F        F      0.090533333333     0.021550000000     0.925800000000    -0.462      
F        F      0.039500000000     0.075150000000     0.889400000000    -0.444      
F        F      0.085133333333     0.349500000000     0.914500000000    -0.316      
F        F      0.082200000000     0.400350000000     0.843500000000    -0.471      
F        F      0.047233333333     0.353550000000     0.855700000000    -0.416      
F        F      0.278500000000     0.146850000000     0.922350000000    -0.459      
F        F      0.252100000000     0.101900000000     0.966250000000    -0.421      
F        F      0.240633333333     0.160500000000     0.981850000000    -0.319      
Ag       Ag     0.125810000000     0.028465000000     0.745770000000     0.476      
Ag       Ag     0.177406666667     0.084585000000     0.694150000000     0.502      
Ag       Ag     0.129763333333     0.123410000000     0.764330000000     0.481      
Ag       Ag     0.192480000000     0.156035000000     0.790385000000     0.454      
Ag       Ag     0.141226666667     0.191125000000     0.858215000000     0.508      
Ag       Ag     0.179526666667     0.265620000000     0.805920000000     0.472      
F        F      0.071333333333     0.333000000000     0.918500000000    -0.141      
F        F      0.253766666667     0.178000000000     0.969500000000    -0.232      
C        C      0.151100000000     0.448400000000     0.731200000000    -0.391      
C        C      0.143466666667     0.466300000000     0.687200000000     0.014      
C        C      0.134400000000     0.485200000000     0.634800000000    -0.017      
C        C      0.153366666667     0.458100000000     0.606150000000    -0.054      
H        H      0.172600000000     0.428250000000     0.619900000000     0.029      
C        C      0.143733333333     0.475350000000     0.556550000000     0.02       
H        H      0.156100000000     0.456000000000     0.537550000000     0.06       
C        C      0.116966666667     0.019300000000     0.535200000000    -0.048      
H        H      0.112133333333     0.031550000000     0.501500000000     0.13       
C        C      0.096300000000     0.046700000000     0.564350000000     0.012      
H        H      0.076933333333     0.076300000000     0.550250000000     0.123      
C        C      0.105166666667     0.029100000000     0.614250000000    -0.052      
H        H      0.091533333333     0.046650000000     0.633850000000     0.09       
C        C      0.195300000000     0.298300000000     0.725300000000    -0.437      
C        C      0.226433333333     0.271850000000     0.738850000000     0.032      
C        C      0.263966666667     0.240650000000     0.751600000000    -0.055      
C        C      0.278266666667     0.218750000000     0.799400000000    -0.005      
H        H      0.263633333333     0.224100000000     0.824450000000     0.08       
C        C      0.314066666667     0.188950000000     0.810150000000    -0.058      
H        H      0.323533333333     0.174300000000     0.842400000000     0.155      
C        C      0.002466666667     0.180850000000     0.773450000000     0.019      
H        H      0.026733333333     0.161150000000     0.781200000000     0.056      
C        C      0.322600000000     0.201200000000     0.725500000000    -0.064      
H        H      0.004200000000     0.194650000000     0.701100000000     0.127      
C        C      0.286266666667     0.231950000000     0.713850000000    -0.001      
H        H      0.276933333333     0.246500000000     0.681500000000     0.069      
C        C      0.062000000000     0.391800000000     0.728750000000     0.085      
H        H      0.067100000000     0.372350000000     0.761700000000     0.038      
C        C      0.068166666667     0.423500000000     0.652200000000     0.042      
H        H      0.078300000000     0.429950000000     0.622050000000     0.072      
C        C      0.033633333333     0.446850000000     0.660550000000     0.006      
H        H      0.015966666667     0.472250000000     0.637400000000     0.139      
C        C      0.330366666667     0.438200000000     0.736550000000    -0.068      
H        H      0.310300000000     0.431950000000     0.722300000000     0.091      
H        H      0.001900000000     0.414750000000     0.770050000000     0.118      
C        C      0.319066666667     0.494050000000     0.736550000000    -0.104      
H        H      0.315100000000     0.017550000000     0.703050000000     0.141      
H        H      0.296166666667     0.000500000000     0.751900000000     0.094      
C        C      0.155200000000     0.411300000000     0.915450000000     0.049      
H        H      0.141033333333     0.445700000000     0.908100000000     0.082      
C        C      0.167933333333     0.377450000000     0.961450000000     0.041      
H        H      0.163633333333     0.383850000000     0.990850000000     0.074      
C        C      0.186400000000     0.339150000000     0.907500000000     0.128      
H        H      0.197633333333     0.313800000000     0.893750000000     0.022      
C        C      0.205166666667     0.283400000000     0.993800000000    -0.091      
H        H      0.223200000000     0.260950000000     0.980200000000     0.171      
H        H      0.217666666667     0.290550000000     0.518150000000     0.121      
C        C      0.178000000000     0.255300000000     0.518250000000    -0.084      
H        H      0.190933333333     0.222400000000     0.542400000000     0.126      
H        H      0.161666666667     0.276000000000     0.535150000000     0.101      
C        C      0.254833333333     0.361250000000     0.824500000000     0.103      
C        C      0.279466666667     0.331600000000     0.871400000000     0.828      
C        C      0.245666666667     0.449000000000     0.660550000000     0.125      
C        C      0.265833333333     0.463850000000     0.612850000000     0.826      
C        C      0.223900000000     0.191100000000     0.643400000000     0.129      
C        C      0.252733333333     0.148300000000     0.630600000000     0.818      
C        C      0.118666666667     0.322200000000     0.593750000000     0.076      
C        C      0.085133333333     0.348600000000     0.557100000000     0.978      
N        N      0.085333333333     0.389450000000     0.694900000000    -0.19       
N        N      0.029666666667     0.426200000000     0.709250000000    -0.091      
N        N      0.166466666667     0.386850000000     0.882500000000    -0.173      
N        N      0.188200000000     0.332400000000     0.955000000000    -0.091      
O        O      0.237333333333     0.336800000000     0.810750000000    -0.275      
O        O      0.255566666667     0.407400000000     0.805400000000    -0.247      
O        O      0.241133333333     0.404250000000     0.672200000000    -0.249      
O        O      0.236600000000     0.482300000000     0.680900000000    -0.244      
O        O      0.204566666667     0.175900000000     0.677800000000    -0.321      
O        O      0.224266666667     0.235900000000     0.620500000000    -0.227      
O        O      0.119966666667     0.278450000000     0.621850000000    -0.241      
O        O      0.139766666667     0.348650000000     0.590600000000    -0.246      
F        F      0.286766666667     0.280500000000     0.883250000000    -0.435      
F        F      0.311066666667     0.342400000000     0.869050000000    -0.416      
F        F      0.264066666667     0.343200000000     0.909000000000    -0.462      
F        F      0.279300000000     0.003100000000     0.608900000000    -0.413      
F        F      0.242800000000     0.478450000000     0.574200000000    -0.462      
F        F      0.293833333333     0.424850000000     0.610600000000    -0.444      
F        F      0.248200000000     0.150500000000     0.585500000000    -0.316      
F        F      0.251133333333     0.099650000000     0.656500000000    -0.471      
F        F      0.286100000000     0.146450000000     0.644300000000    -0.416      
F        F      0.054833333333     0.353150000000     0.577650000000    -0.459      
F        F      0.081233333333     0.398100000000     0.533750000000    -0.421      
F        F      0.092700000000     0.339500000000     0.518150000000    -0.319      
Ag       Ag     0.207523333333     0.471535000000     0.754230000000     0.476      
Ag       Ag     0.155926666667     0.415415000000     0.805850000000     0.502      
Ag       Ag     0.203570000000     0.376590000000     0.735670000000     0.481      
Ag       Ag     0.140853333333     0.343965000000     0.709615000000     0.454      
Ag       Ag     0.192106666667     0.308875000000     0.641785000000     0.508      
Ag       Ag     0.153806666667     0.234380000000     0.694080000000     0.472      
F        F      0.262000000000     0.167000000000     0.581500000000    -0.141      
F        F      0.079566666667     0.322000000000     0.530500000000    -0.232      
C        C      0.182233333333     0.551600000000     0.268800000000    -0.392      
C        C      0.189866666667     0.533700000000     0.312800000000     0.013      
C        C      0.198933333333     0.514800000000     0.365200000000    -0.018      
C        C      0.179966666667     0.541900000000     0.393850000000    -0.055      
H        H      0.160733333333     0.571750000000     0.380100000000     0.029      
C        C      0.189600000000     0.524650000000     0.443450000000     0.02       
H        H      0.177233333333     0.544000000000     0.462450000000     0.06       
C        C      0.216366666667     0.980700000000     0.464800000000    -0.048      
H        H      0.221200000000     0.968450000000     0.498500000000     0.13       
C        C      0.237033333333     0.953300000000     0.435650000000     0.012      
H        H      0.256400000000     0.923700000000     0.449750000000     0.123      
C        C      0.228166666667     0.970900000000     0.385750000000    -0.052      
H        H      0.241800000000     0.953350000000     0.366150000000     0.09       
C        C      0.138033333333     0.701700000000     0.274700000000    -0.437      
C        C      0.106900000000     0.728150000000     0.261150000000     0.032      
C        C      0.069366666667     0.759350000000     0.248400000000    -0.055      
C        C      0.055066666667     0.781250000000     0.200600000000    -0.005      
H        H      0.069700000000     0.775900000000     0.175550000000     0.08       
C        C      0.019266666667     0.811050000000     0.189850000000    -0.058      
H        H      0.009800000000     0.825700000000     0.157600000000     0.155      
C        C      0.330866666667     0.819150000000     0.226550000000     0.019      
H        H      0.306600000000     0.838850000000     0.218800000000     0.056      
C        C      0.010733333333     0.798800000000     0.274500000000    -0.064      
H        H      0.329133333333     0.805350000000     0.298900000000     0.127      
C        C      0.047066666667     0.768050000000     0.286150000000    -0.001      
H        H      0.056400000000     0.753500000000     0.318500000000     0.069      
C        C      0.271333333333     0.608200000000     0.271250000000     0.085      
H        H      0.266233333333     0.627650000000     0.238300000000     0.038      
C        C      0.265166666667     0.576500000000     0.347800000000     0.042      
H        H      0.255033333333     0.570050000000     0.377950000000     0.072      
C        C      0.299700000000     0.553150000000     0.339450000000     0.006      
H        H      0.317366666667     0.527750000000     0.362600000000     0.139      
C        C      0.002966666667     0.561800000000     0.263450000000    -0.068      
H        H      0.023033333333     0.568050000000     0.277700000000     0.091      
H        H      0.331433333333     0.585250000000     0.229950000000     0.118      
C        C      0.014266666667     0.505950000000     0.263450000000    -0.104      
H        H      0.018233333333     0.982450000000     0.296950000000     0.141      
H        H      0.037166666667     0.999500000000     0.248100000000     0.094      
C        C      0.178133333333     0.588700000000     0.084550000000     0.049      
H        H      0.192300000000     0.554300000000     0.091900000000     0.082      
C        C      0.165400000000     0.622550000000     0.038550000000     0.041      
H        H      0.169700000000     0.616150000000     0.009150000000     0.074      
C        C      0.146933333333     0.660850000000     0.092500000000     0.128      
H        H      0.135700000000     0.686200000000     0.106250000000     0.022      
C        C      0.128166666667     0.716600000000     0.006200000000    -0.091      
H        H      0.110133333333     0.739050000000     0.019800000000     0.171      
H        H      0.115666666667     0.709450000000     0.481850000000     0.121      
C        C      0.155333333333     0.744700000000     0.481750000000    -0.084      
H        H      0.142400000000     0.777600000000     0.457600000000     0.126      
H        H      0.171666666667     0.724000000000     0.464850000000     0.101      
C        C      0.078500000000     0.638750000000     0.175500000000     0.103      
C        C      0.053866666667     0.668400000000     0.128600000000     0.828      
C        C      0.087666666667     0.551000000000     0.339450000000     0.125      
C        C      0.067500000000     0.536150000000     0.387150000000     0.826      
C        C      0.109433333333     0.808900000000     0.356600000000     0.129      
C        C      0.080600000000     0.851700000000     0.369400000000     0.818      
C        C      0.214666666667     0.677800000000     0.406250000000     0.076      
C        C      0.248200000000     0.651400000000     0.442900000000     0.978      
N        N      0.248000000000     0.610550000000     0.305100000000    -0.19       
N        N      0.303666666667     0.573800000000     0.290750000000    -0.091      
N        N      0.166866666667     0.613150000000     0.117500000000    -0.173      
N        N      0.145133333333     0.667600000000     0.045000000000    -0.091      
O        O      0.096000000000     0.663200000000     0.189250000000    -0.275      
O        O      0.077766666667     0.592600000000     0.194600000000    -0.247      
O        O      0.092200000000     0.595750000000     0.327800000000    -0.249      
O        O      0.096733333333     0.517700000000     0.319100000000    -0.244      
O        O      0.128766666667     0.824100000000     0.322200000000    -0.321      
O        O      0.109066666667     0.764100000000     0.379500000000    -0.227      
O        O      0.213366666667     0.721550000000     0.378150000000    -0.241      
O        O      0.193566666667     0.651350000000     0.409400000000    -0.246      
F        F      0.046566666667     0.719500000000     0.116750000000    -0.435      
F        F      0.022266666667     0.657600000000     0.130950000000    -0.416      
F        F      0.069266666667     0.656800000000     0.091000000000    -0.462      
F        F      0.054033333333     0.996900000000     0.391100000000    -0.413      
F        F      0.090533333333     0.521550000000     0.425800000000    -0.462      
F        F      0.039500000000     0.575150000000     0.389400000000    -0.444      
F        F      0.085133333333     0.849500000000     0.414500000000    -0.316      
F        F      0.082200000000     0.900350000000     0.343500000000    -0.471      
F        F      0.047233333333     0.853550000000     0.355700000000    -0.416      
F        F      0.278500000000     0.646850000000     0.422350000000    -0.459      
F        F      0.252100000000     0.601900000000     0.466250000000    -0.421      
F        F      0.240633333333     0.660500000000     0.481850000000    -0.319      
Ag       Ag     0.125810000000     0.528465000000     0.245770000000     0.476      
Ag       Ag     0.177406666667     0.584585000000     0.194150000000     0.502      
Ag       Ag     0.129763333333     0.623410000000     0.264330000000     0.481      
Ag       Ag     0.192480000000     0.656035000000     0.290385000000     0.454      
Ag       Ag     0.141226666667     0.691125000000     0.358215000000     0.508      
Ag       Ag     0.179526666667     0.765620000000     0.305920000000     0.472      
F        F      0.071333333333     0.833000000000     0.418500000000    -0.141      
F        F      0.253766666667     0.678000000000     0.469500000000    -0.232      
C        C      0.151100000000     0.948400000000     0.231200000000    -0.391      
C        C      0.143466666667     0.966300000000     0.187200000000     0.014      
C        C      0.134400000000     0.985200000000     0.134800000000    -0.017      
C        C      0.153366666667     0.958100000000     0.106150000000    -0.054      
H        H      0.172600000000     0.928250000000     0.119900000000     0.029      
C        C      0.143733333333     0.975350000000     0.056550000000     0.02       
H        H      0.156100000000     0.956000000000     0.037550000000     0.06       
C        C      0.116966666667     0.519300000000     0.035200000000    -0.048      
H        H      0.112133333333     0.531550000000     0.001500000000     0.13       
C        C      0.096300000000     0.546700000000     0.064350000000     0.012      
H        H      0.076933333333     0.576300000000     0.050250000000     0.123      
C        C      0.105166666667     0.529100000000     0.114250000000    -0.052      
H        H      0.091533333333     0.546650000000     0.133850000000     0.09       
C        C      0.195300000000     0.798300000000     0.225300000000    -0.437      
C        C      0.226433333333     0.771850000000     0.238850000000     0.032      
C        C      0.263966666667     0.740650000000     0.251600000000    -0.055      
C        C      0.278266666667     0.718750000000     0.299400000000    -0.005      
H        H      0.263633333333     0.724100000000     0.324450000000     0.08       
C        C      0.314066666667     0.688950000000     0.310150000000    -0.058      
H        H      0.323533333333     0.674300000000     0.342400000000     0.155      
C        C      0.002466666667     0.680850000000     0.273450000000     0.019      
H        H      0.026733333333     0.661150000000     0.281200000000     0.056      
C        C      0.322600000000     0.701200000000     0.225500000000    -0.064      
H        H      0.004200000000     0.694650000000     0.201100000000     0.127      
C        C      0.286266666667     0.731950000000     0.213850000000    -0.001      
H        H      0.276933333333     0.746500000000     0.181500000000     0.069      
C        C      0.062000000000     0.891800000000     0.228750000000     0.085      
H        H      0.067100000000     0.872350000000     0.261700000000     0.038      
C        C      0.068166666667     0.923500000000     0.152200000000     0.042      
H        H      0.078300000000     0.929950000000     0.122050000000     0.072      
C        C      0.033633333333     0.946850000000     0.160550000000     0.006      
H        H      0.015966666667     0.972250000000     0.137400000000     0.139      
C        C      0.330366666667     0.938200000000     0.236550000000    -0.068      
H        H      0.310300000000     0.931950000000     0.222300000000     0.091      
H        H      0.001900000000     0.914750000000     0.270050000000     0.118      
C        C      0.319066666667     0.994050000000     0.236550000000    -0.104      
H        H      0.315100000000     0.517550000000     0.203050000000     0.141      
H        H      0.296166666667     0.500500000000     0.251900000000     0.094      
C        C      0.155200000000     0.911300000000     0.415450000000     0.049      
H        H      0.141033333333     0.945700000000     0.408100000000     0.082      
C        C      0.167933333333     0.877450000000     0.461450000000     0.041      
H        H      0.163633333333     0.883850000000     0.490850000000     0.074      
C        C      0.186400000000     0.839150000000     0.407500000000     0.128      
H        H      0.197633333333     0.813800000000     0.393750000000     0.022      
C        C      0.205166666667     0.783400000000     0.493800000000    -0.091      
H        H      0.223200000000     0.760950000000     0.480200000000     0.171      
H        H      0.217666666667     0.790550000000     0.018150000000     0.121      
C        C      0.178000000000     0.755300000000     0.018250000000    -0.084      
H        H      0.190933333333     0.722400000000     0.042400000000     0.126      
H        H      0.161666666667     0.776000000000     0.035150000000     0.101      
C        C      0.254833333333     0.861250000000     0.324500000000     0.103      
C        C      0.279466666667     0.831600000000     0.371400000000     0.828      
C        C      0.245666666667     0.949000000000     0.160550000000     0.125      
C        C      0.265833333333     0.963850000000     0.112850000000     0.826      
C        C      0.223900000000     0.691100000000     0.143400000000     0.129      
C        C      0.252733333333     0.648300000000     0.130600000000     0.818      
C        C      0.118666666667     0.822200000000     0.093750000000     0.076      
C        C      0.085133333333     0.848600000000     0.057100000000     0.978      
N        N      0.085333333333     0.889450000000     0.194900000000    -0.19       
N        N      0.029666666667     0.926200000000     0.209250000000    -0.091      
N        N      0.166466666667     0.886850000000     0.382500000000    -0.173      
N        N      0.188200000000     0.832400000000     0.455000000000    -0.091      
O        O      0.237333333333     0.836800000000     0.310750000000    -0.275      
O        O      0.255566666667     0.907400000000     0.305400000000    -0.247      
O        O      0.241133333333     0.904250000000     0.172200000000    -0.249      
O        O      0.236600000000     0.982300000000     0.180900000000    -0.244      
O        O      0.204566666667     0.675900000000     0.177800000000    -0.321      
O        O      0.224266666667     0.735900000000     0.120500000000    -0.227      
O        O      0.119966666667     0.778450000000     0.121850000000    -0.241      
O        O      0.139766666667     0.848650000000     0.090600000000    -0.246      
F        F      0.286766666667     0.780500000000     0.383250000000    -0.435      
F        F      0.311066666667     0.842400000000     0.369050000000    -0.416      
F        F      0.264066666667     0.843200000000     0.409000000000    -0.462      
F        F      0.279300000000     0.503100000000     0.108900000000    -0.413      
F        F      0.242800000000     0.978450000000     0.074200000000    -0.462      
F        F      0.293833333333     0.924850000000     0.110600000000    -0.444      
F        F      0.248200000000     0.650500000000     0.085500000000    -0.316      
F        F      0.251133333333     0.599650000000     0.156500000000    -0.471      
F        F      0.286100000000     0.646450000000     0.144300000000    -0.416      
F        F      0.054833333333     0.853150000000     0.077650000000    -0.459      
F        F      0.081233333333     0.898100000000     0.033750000000    -0.421      
F        F      0.092700000000     0.839500000000     0.018150000000    -0.319      
Ag       Ag     0.207523333333     0.971535000000     0.254230000000     0.476      
Ag       Ag     0.155926666667     0.915415000000     0.305850000000     0.502      
Ag       Ag     0.203570000000     0.876590000000     0.235670000000     0.481      
Ag       Ag     0.140853333333     0.843965000000     0.209615000000     0.454      
Ag       Ag     0.192106666667     0.808875000000     0.141785000000     0.508      
Ag       Ag     0.153806666667     0.734380000000     0.194080000000     0.472      
F        F      0.262000000000     0.667000000000     0.081500000000    -0.141      
F        F      0.079566666667     0.822000000000     0.030500000000    -0.232      
C        C      0.182233333333     0.551600000000     0.768800000000    -0.392      
C        C      0.189866666667     0.533700000000     0.812800000000     0.013      
C        C      0.198933333333     0.514800000000     0.865200000000    -0.018      
C        C      0.179966666667     0.541900000000     0.893850000000    -0.055      
H        H      0.160733333333     0.571750000000     0.880100000000     0.029      
C        C      0.189600000000     0.524650000000     0.943450000000     0.02       
H        H      0.177233333333     0.544000000000     0.962450000000     0.06       
C        C      0.216366666667     0.980700000000     0.964800000000    -0.048      
H        H      0.221200000000     0.968450000000     0.998500000000     0.13       
C        C      0.237033333333     0.953300000000     0.935650000000     0.012      
H        H      0.256400000000     0.923700000000     0.949750000000     0.123      
C        C      0.228166666667     0.970900000000     0.885750000000    -0.052      
H        H      0.241800000000     0.953350000000     0.866150000000     0.09       
C        C      0.138033333333     0.701700000000     0.774700000000    -0.437      
C        C      0.106900000000     0.728150000000     0.761150000000     0.032      
C        C      0.069366666667     0.759350000000     0.748400000000    -0.055      
C        C      0.055066666667     0.781250000000     0.700600000000    -0.005      
H        H      0.069700000000     0.775900000000     0.675550000000     0.08       
C        C      0.019266666667     0.811050000000     0.689850000000    -0.058      
H        H      0.009800000000     0.825700000000     0.657600000000     0.155      
C        C      0.330866666667     0.819150000000     0.726550000000     0.019      
H        H      0.306600000000     0.838850000000     0.718800000000     0.056      
C        C      0.010733333333     0.798800000000     0.774500000000    -0.064      
H        H      0.329133333333     0.805350000000     0.798900000000     0.127      
C        C      0.047066666667     0.768050000000     0.786150000000    -0.001      
H        H      0.056400000000     0.753500000000     0.818500000000     0.069      
C        C      0.271333333333     0.608200000000     0.771250000000     0.085      
H        H      0.266233333333     0.627650000000     0.738300000000     0.038      
C        C      0.265166666667     0.576500000000     0.847800000000     0.042      
H        H      0.255033333333     0.570050000000     0.877950000000     0.072      
C        C      0.299700000000     0.553150000000     0.839450000000     0.006      
H        H      0.317366666667     0.527750000000     0.862600000000     0.139      
C        C      0.002966666667     0.561800000000     0.763450000000    -0.068      
H        H      0.023033333333     0.568050000000     0.777700000000     0.091      
H        H      0.331433333333     0.585250000000     0.729950000000     0.118      
C        C      0.014266666667     0.505950000000     0.763450000000    -0.104      
H        H      0.018233333333     0.982450000000     0.796950000000     0.141      
H        H      0.037166666667     0.999500000000     0.748100000000     0.094      
C        C      0.178133333333     0.588700000000     0.584550000000     0.049      
H        H      0.192300000000     0.554300000000     0.591900000000     0.082      
C        C      0.165400000000     0.622550000000     0.538550000000     0.041      
H        H      0.169700000000     0.616150000000     0.509150000000     0.074      
C        C      0.146933333333     0.660850000000     0.592500000000     0.128      
H        H      0.135700000000     0.686200000000     0.606250000000     0.022      
C        C      0.128166666667     0.716600000000     0.506200000000    -0.091      
H        H      0.110133333333     0.739050000000     0.519800000000     0.171      
H        H      0.115666666667     0.709450000000     0.981850000000     0.121      
C        C      0.155333333333     0.744700000000     0.981750000000    -0.084      
H        H      0.142400000000     0.777600000000     0.957600000000     0.126      
H        H      0.171666666667     0.724000000000     0.964850000000     0.101      
C        C      0.078500000000     0.638750000000     0.675500000000     0.103      
C        C      0.053866666667     0.668400000000     0.628600000000     0.828      
C        C      0.087666666667     0.551000000000     0.839450000000     0.125      
C        C      0.067500000000     0.536150000000     0.887150000000     0.826      
C        C      0.109433333333     0.808900000000     0.856600000000     0.129      
C        C      0.080600000000     0.851700000000     0.869400000000     0.818      
C        C      0.214666666667     0.677800000000     0.906250000000     0.076      
C        C      0.248200000000     0.651400000000     0.942900000000     0.978      
N        N      0.248000000000     0.610550000000     0.805100000000    -0.19       
N        N      0.303666666667     0.573800000000     0.790750000000    -0.091      
N        N      0.166866666667     0.613150000000     0.617500000000    -0.173      
N        N      0.145133333333     0.667600000000     0.545000000000    -0.091      
O        O      0.096000000000     0.663200000000     0.689250000000    -0.275      
O        O      0.077766666667     0.592600000000     0.694600000000    -0.247      
O        O      0.092200000000     0.595750000000     0.827800000000    -0.249      
O        O      0.096733333333     0.517700000000     0.819100000000    -0.244      
O        O      0.128766666667     0.824100000000     0.822200000000    -0.321      
O        O      0.109066666667     0.764100000000     0.879500000000    -0.227      
O        O      0.213366666667     0.721550000000     0.878150000000    -0.241      
O        O      0.193566666667     0.651350000000     0.909400000000    -0.246      
F        F      0.046566666667     0.719500000000     0.616750000000    -0.435      
F        F      0.022266666667     0.657600000000     0.630950000000    -0.416      
F        F      0.069266666667     0.656800000000     0.591000000000    -0.462      
F        F      0.054033333333     0.996900000000     0.891100000000    -0.413      
F        F      0.090533333333     0.521550000000     0.925800000000    -0.462      
F        F      0.039500000000     0.575150000000     0.889400000000    -0.444      
F        F      0.085133333333     0.849500000000     0.914500000000    -0.316      
F        F      0.082200000000     0.900350000000     0.843500000000    -0.471      
F        F      0.047233333333     0.853550000000     0.855700000000    -0.416      
F        F      0.278500000000     0.646850000000     0.922350000000    -0.459      
F        F      0.252100000000     0.601900000000     0.966250000000    -0.421      
F        F      0.240633333333     0.660500000000     0.981850000000    -0.319      
Ag       Ag     0.125810000000     0.528465000000     0.745770000000     0.476      
Ag       Ag     0.177406666667     0.584585000000     0.694150000000     0.502      
Ag       Ag     0.129763333333     0.623410000000     0.764330000000     0.481      
Ag       Ag     0.192480000000     0.656035000000     0.790385000000     0.454      
Ag       Ag     0.141226666667     0.691125000000     0.858215000000     0.508      
Ag       Ag     0.179526666667     0.765620000000     0.805920000000     0.472      
F        F      0.071333333333     0.833000000000     0.918500000000    -0.141      
F        F      0.253766666667     0.678000000000     0.969500000000    -0.232      
C        C      0.151100000000     0.948400000000     0.731200000000    -0.391      
C        C      0.143466666667     0.966300000000     0.687200000000     0.014      
C        C      0.134400000000     0.985200000000     0.634800000000    -0.017      
C        C      0.153366666667     0.958100000000     0.606150000000    -0.054      
H        H      0.172600000000     0.928250000000     0.619900000000     0.029      
C        C      0.143733333333     0.975350000000     0.556550000000     0.02       
H        H      0.156100000000     0.956000000000     0.537550000000     0.06       
C        C      0.116966666667     0.519300000000     0.535200000000    -0.048      
H        H      0.112133333333     0.531550000000     0.501500000000     0.13       
C        C      0.096300000000     0.546700000000     0.564350000000     0.012      
H        H      0.076933333333     0.576300000000     0.550250000000     0.123      
C        C      0.105166666667     0.529100000000     0.614250000000    -0.052      
H        H      0.091533333333     0.546650000000     0.633850000000     0.09       
C        C      0.195300000000     0.798300000000     0.725300000000    -0.437      
C        C      0.226433333333     0.771850000000     0.738850000000     0.032      
C        C      0.263966666667     0.740650000000     0.751600000000    -0.055      
C        C      0.278266666667     0.718750000000     0.799400000000    -0.005      
H        H      0.263633333333     0.724100000000     0.824450000000     0.08       
C        C      0.314066666667     0.688950000000     0.810150000000    -0.058      
H        H      0.323533333333     0.674300000000     0.842400000000     0.155      
C        C      0.002466666667     0.680850000000     0.773450000000     0.019      
H        H      0.026733333333     0.661150000000     0.781200000000     0.056      
C        C      0.322600000000     0.701200000000     0.725500000000    -0.064      
H        H      0.004200000000     0.694650000000     0.701100000000     0.127      
C        C      0.286266666667     0.731950000000     0.713850000000    -0.001      
H        H      0.276933333333     0.746500000000     0.681500000000     0.069      
C        C      0.062000000000     0.891800000000     0.728750000000     0.085      
H        H      0.067100000000     0.872350000000     0.761700000000     0.038      
C        C      0.068166666667     0.923500000000     0.652200000000     0.042      
H        H      0.078300000000     0.929950000000     0.622050000000     0.072      
C        C      0.033633333333     0.946850000000     0.660550000000     0.006      
H        H      0.015966666667     0.972250000000     0.637400000000     0.139      
C        C      0.330366666667     0.938200000000     0.736550000000    -0.068      
H        H      0.310300000000     0.931950000000     0.722300000000     0.091      
H        H      0.001900000000     0.914750000000     0.770050000000     0.118      
C        C      0.319066666667     0.994050000000     0.736550000000    -0.104      
H        H      0.315100000000     0.517550000000     0.703050000000     0.141      
H        H      0.296166666667     0.500500000000     0.751900000000     0.094      
C        C      0.155200000000     0.911300000000     0.915450000000     0.049      
H        H      0.141033333333     0.945700000000     0.908100000000     0.082      
C        C      0.167933333333     0.877450000000     0.961450000000     0.041      
H        H      0.163633333333     0.883850000000     0.990850000000     0.074      
C        C      0.186400000000     0.839150000000     0.907500000000     0.128      
H        H      0.197633333333     0.813800000000     0.893750000000     0.022      
C        C      0.205166666667     0.783400000000     0.993800000000    -0.091      
H        H      0.223200000000     0.760950000000     0.980200000000     0.171      
H        H      0.217666666667     0.790550000000     0.518150000000     0.121      
C        C      0.178000000000     0.755300000000     0.518250000000    -0.084      
H        H      0.190933333333     0.722400000000     0.542400000000     0.126      
H        H      0.161666666667     0.776000000000     0.535150000000     0.101      
C        C      0.254833333333     0.861250000000     0.824500000000     0.103      
C        C      0.279466666667     0.831600000000     0.871400000000     0.828      
C        C      0.245666666667     0.949000000000     0.660550000000     0.125      
C        C      0.265833333333     0.963850000000     0.612850000000     0.826      
C        C      0.223900000000     0.691100000000     0.643400000000     0.129      
C        C      0.252733333333     0.648300000000     0.630600000000     0.818      
C        C      0.118666666667     0.822200000000     0.593750000000     0.076      
C        C      0.085133333333     0.848600000000     0.557100000000     0.978      
N        N      0.085333333333     0.889450000000     0.694900000000    -0.19       
N        N      0.029666666667     0.926200000000     0.709250000000    -0.091      
N        N      0.166466666667     0.886850000000     0.882500000000    -0.173      
N        N      0.188200000000     0.832400000000     0.955000000000    -0.091      
O        O      0.237333333333     0.836800000000     0.810750000000    -0.275      
O        O      0.255566666667     0.907400000000     0.805400000000    -0.247      
O        O      0.241133333333     0.904250000000     0.672200000000    -0.249      
O        O      0.236600000000     0.982300000000     0.680900000000    -0.244      
O        O      0.204566666667     0.675900000000     0.677800000000    -0.321      
O        O      0.224266666667     0.735900000000     0.620500000000    -0.227      
O        O      0.119966666667     0.778450000000     0.621850000000    -0.241      
O        O      0.139766666667     0.848650000000     0.590600000000    -0.246      
F        F      0.286766666667     0.780500000000     0.883250000000    -0.435      
F        F      0.311066666667     0.842400000000     0.869050000000    -0.416      
F        F      0.264066666667     0.843200000000     0.909000000000    -0.462      
F        F      0.279300000000     0.503100000000     0.608900000000    -0.413      
F        F      0.242800000000     0.978450000000     0.574200000000    -0.462      
F        F      0.293833333333     0.924850000000     0.610600000000    -0.444      
F        F      0.248200000000     0.650500000000     0.585500000000    -0.316      
F        F      0.251133333333     0.599650000000     0.656500000000    -0.471      
F        F      0.286100000000     0.646450000000     0.644300000000    -0.416      
F        F      0.054833333333     0.853150000000     0.577650000000    -0.459      
F        F      0.081233333333     0.898100000000     0.533750000000    -0.421      
F        F      0.092700000000     0.839500000000     0.518150000000    -0.319      
Ag       Ag     0.207523333333     0.971535000000     0.754230000000     0.476      
Ag       Ag     0.155926666667     0.915415000000     0.805850000000     0.502      
Ag       Ag     0.203570000000     0.876590000000     0.735670000000     0.481      
Ag       Ag     0.140853333333     0.843965000000     0.709615000000     0.454      
Ag       Ag     0.192106666667     0.808875000000     0.641785000000     0.508      
Ag       Ag     0.153806666667     0.734380000000     0.694080000000     0.472      
F        F      0.262000000000     0.667000000000     0.581500000000    -0.141      
F        F      0.079566666667     0.822000000000     0.530500000000    -0.232      
C        C      0.515566666667     0.051600000000     0.268800000000    -0.392      
C        C      0.523200000000     0.033700000000     0.312800000000     0.013      
C        C      0.532266666667     0.014800000000     0.365200000000    -0.018      
C        C      0.513300000000     0.041900000000     0.393850000000    -0.055      
H        H      0.494066666667     0.071750000000     0.380100000000     0.029      
C        C      0.522933333333     0.024650000000     0.443450000000     0.02       
H        H      0.510566666667     0.044000000000     0.462450000000     0.06       
C        C      0.549700000000     0.480700000000     0.464800000000    -0.048      
H        H      0.554533333333     0.468450000000     0.498500000000     0.13       
C        C      0.570366666667     0.453300000000     0.435650000000     0.012      
H        H      0.589733333333     0.423700000000     0.449750000000     0.123      
C        C      0.561500000000     0.470900000000     0.385750000000    -0.052      
H        H      0.575133333333     0.453350000000     0.366150000000     0.09       
C        C      0.471366666667     0.201700000000     0.274700000000    -0.437      
C        C      0.440233333333     0.228150000000     0.261150000000     0.032      
C        C      0.402700000000     0.259350000000     0.248400000000    -0.055      
C        C      0.388400000000     0.281250000000     0.200600000000    -0.005      
H        H      0.403033333333     0.275900000000     0.175550000000     0.08       
C        C      0.352600000000     0.311050000000     0.189850000000    -0.058      
H        H      0.343133333333     0.325700000000     0.157600000000     0.155      
C        C      0.664200000000     0.319150000000     0.226550000000     0.019      
H        H      0.639933333333     0.338850000000     0.218800000000     0.056      
C        C      0.344066666667     0.298800000000     0.274500000000    -0.064      
H        H      0.662466666667     0.305350000000     0.298900000000     0.127      
C        C      0.380400000000     0.268050000000     0.286150000000    -0.001      
H        H      0.389733333333     0.253500000000     0.318500000000     0.069      
C        C      0.604666666667     0.108200000000     0.271250000000     0.085      
H        H      0.599566666667     0.127650000000     0.238300000000     0.038      
C        C      0.598500000000     0.076500000000     0.347800000000     0.042      
H        H      0.588366666667     0.070050000000     0.377950000000     0.072      
C        C      0.633033333333     0.053150000000     0.339450000000     0.006      
H        H      0.650700000000     0.027750000000     0.362600000000     0.139      
C        C      0.336300000000     0.061800000000     0.263450000000    -0.068      
H        H      0.356366666667     0.068050000000     0.277700000000     0.091      
H        H      0.664766666667     0.085250000000     0.229950000000     0.118      
C        C      0.347600000000     0.005950000000     0.263450000000    -0.104      
H        H      0.351566666667     0.482450000000     0.296950000000     0.141      
H        H      0.370500000000     0.499500000000     0.248100000000     0.094      
C        C      0.511466666667     0.088700000000     0.084550000000     0.049      
H        H      0.525633333333     0.054300000000     0.091900000000     0.082      
C        C      0.498733333333     0.122550000000     0.038550000000     0.041      
H        H      0.503033333333     0.116150000000     0.009150000000     0.074      
C        C      0.480266666667     0.160850000000     0.092500000000     0.128      
H        H      0.469033333333     0.186200000000     0.106250000000     0.022      
C        C      0.461500000000     0.216600000000     0.006200000000    -0.091      
H        H      0.443466666667     0.239050000000     0.019800000000     0.171      
H        H      0.449000000000     0.209450000000     0.481850000000     0.121      
C        C      0.488666666667     0.244700000000     0.481750000000    -0.084      
H        H      0.475733333333     0.277600000000     0.457600000000     0.126      
H        H      0.505000000000     0.224000000000     0.464850000000     0.101      
C        C      0.411833333333     0.138750000000     0.175500000000     0.103      
C        C      0.387200000000     0.168400000000     0.128600000000     0.828      
C        C      0.421000000000     0.051000000000     0.339450000000     0.125      
C        C      0.400833333333     0.036150000000     0.387150000000     0.826      
C        C      0.442766666667     0.308900000000     0.356600000000     0.129      
C        C      0.413933333333     0.351700000000     0.369400000000     0.818      
C        C      0.548000000000     0.177800000000     0.406250000000     0.076      
C        C      0.581533333333     0.151400000000     0.442900000000     0.978      
N        N      0.581333333333     0.110550000000     0.305100000000    -0.19       
N        N      0.637000000000     0.073800000000     0.290750000000    -0.091      
N        N      0.500200000000     0.113150000000     0.117500000000    -0.173      
N        N      0.478466666667     0.167600000000     0.045000000000    -0.091      
O        O      0.429333333333     0.163200000000     0.189250000000    -0.275      
O        O      0.411100000000     0.092600000000     0.194600000000    -0.247      
O        O      0.425533333333     0.095750000000     0.327800000000    -0.249      
O        O      0.430066666667     0.017700000000     0.319100000000    -0.244      
O        O      0.462100000000     0.324100000000     0.322200000000    -0.321      
O        O      0.442400000000     0.264100000000     0.379500000000    -0.227      
O        O      0.546700000000     0.221550000000     0.378150000000    -0.241      
O        O      0.526900000000     0.151350000000     0.409400000000    -0.246      
F        F      0.379900000000     0.219500000000     0.116750000000    -0.435      
F        F      0.355600000000     0.157600000000     0.130950000000    -0.416      
F        F      0.402600000000     0.156800000000     0.091000000000    -0.462      
F        F      0.387366666667     0.496900000000     0.391100000000    -0.413      
F        F      0.423866666667     0.021550000000     0.425800000000    -0.462      
F        F      0.372833333333     0.075150000000     0.389400000000    -0.444      
F        F      0.418466666667     0.349500000000     0.414500000000    -0.316      
F        F      0.415533333333     0.400350000000     0.343500000000    -0.471      
F        F      0.380566666667     0.353550000000     0.355700000000    -0.416      
F        F      0.611833333333     0.146850000000     0.422350000000    -0.459      
F        F      0.585433333333     0.101900000000     0.466250000000    -0.421      
F        F      0.573966666667     0.160500000000     0.481850000000    -0.319      
Ag       Ag     0.459143333333     0.028465000000     0.245770000000     0.476      
Ag       Ag     0.510740000000     0.084585000000     0.194150000000     0.502      
Ag       Ag     0.463096666667     0.123410000000     0.264330000000     0.481      
Ag       Ag     0.525813333333     0.156035000000     0.290385000000     0.454      
Ag       Ag     0.474560000000     0.191125000000     0.358215000000     0.508      
Ag       Ag     0.512860000000     0.265620000000     0.305920000000     0.472      
F        F      0.404666666667     0.333000000000     0.418500000000    -0.141      
F        F      0.587100000000     0.178000000000     0.469500000000    -0.232      
C        C      0.484433333333     0.448400000000     0.231200000000    -0.391      
C        C      0.476800000000     0.466300000000     0.187200000000     0.014      
C        C      0.467733333333     0.485200000000     0.134800000000    -0.017      
C        C      0.486700000000     0.458100000000     0.106150000000    -0.054      
H        H      0.505933333333     0.428250000000     0.119900000000     0.029      
C        C      0.477066666667     0.475350000000     0.056550000000     0.02       
H        H      0.489433333333     0.456000000000     0.037550000000     0.06       
C        C      0.450300000000     0.019300000000     0.035200000000    -0.048      
H        H      0.445466666667     0.031550000000     0.001500000000     0.13       
C        C      0.429633333333     0.046700000000     0.064350000000     0.012      
H        H      0.410266666667     0.076300000000     0.050250000000     0.123      
C        C      0.438500000000     0.029100000000     0.114250000000    -0.052      
H        H      0.424866666667     0.046650000000     0.133850000000     0.09       
C        C      0.528633333333     0.298300000000     0.225300000000    -0.437      
C        C      0.559766666667     0.271850000000     0.238850000000     0.032      
C        C      0.597300000000     0.240650000000     0.251600000000    -0.055      
C        C      0.611600000000     0.218750000000     0.299400000000    -0.005      
H        H      0.596966666667     0.224100000000     0.324450000000     0.08       
C        C      0.647400000000     0.188950000000     0.310150000000    -0.058      
H        H      0.656866666667     0.174300000000     0.342400000000     0.155      
C        C      0.335800000000     0.180850000000     0.273450000000     0.019      
H        H      0.360066666667     0.161150000000     0.281200000000     0.056      
C        C      0.655933333333     0.201200000000     0.225500000000    -0.064      
H        H      0.337533333333     0.194650000000     0.201100000000     0.127      
C        C      0.619600000000     0.231950000000     0.213850000000    -0.001      
H        H      0.610266666667     0.246500000000     0.181500000000     0.069      
C        C      0.395333333333     0.391800000000     0.228750000000     0.085      
H        H      0.400433333333     0.372350000000     0.261700000000     0.038      
C        C      0.401500000000     0.423500000000     0.152200000000     0.042      
H        H      0.411633333333     0.429950000000     0.122050000000     0.072      
C        C      0.366966666667     0.446850000000     0.160550000000     0.006      
H        H      0.349300000000     0.472250000000     0.137400000000     0.139      
C        C      0.663700000000     0.438200000000     0.236550000000    -0.068      
H        H      0.643633333333     0.431950000000     0.222300000000     0.091      
H        H      0.335233333333     0.414750000000     0.270050000000     0.118      
C        C      0.652400000000     0.494050000000     0.236550000000    -0.104      
H        H      0.648433333333     0.017550000000     0.203050000000     0.141      
H        H      0.629500000000     0.000500000000     0.251900000000     0.094      
C        C      0.488533333333     0.411300000000     0.415450000000     0.049      
H        H      0.474366666667     0.445700000000     0.408100000000     0.082      
C        C      0.501266666667     0.377450000000     0.461450000000     0.041      
H        H      0.496966666667     0.383850000000     0.490850000000     0.074      
C        C      0.519733333333     0.339150000000     0.407500000000     0.128      
H        H      0.530966666667     0.313800000000     0.393750000000     0.022      
C        C      0.538500000000     0.283400000000     0.493800000000    -0.091      
H        H      0.556533333333     0.260950000000     0.480200000000     0.171      
H        H      0.551000000000     0.290550000000     0.018150000000     0.121      
C        C      0.511333333333     0.255300000000     0.018250000000    -0.084      
H        H      0.524266666667     0.222400000000     0.042400000000     0.126      
H        H      0.495000000000     0.276000000000     0.035150000000     0.101      
C        C      0.588166666667     0.361250000000     0.324500000000     0.103      
C        C      0.612800000000     0.331600000000     0.371400000000     0.828      
C        C      0.579000000000     0.449000000000     0.160550000000     0.125      
C        C      0.599166666667     0.463850000000     0.112850000000     0.826      
C        C      0.557233333333     0.191100000000     0.143400000000     0.129      
C        C      0.586066666667     0.148300000000     0.130600000000     0.818      
C        C      0.452000000000     0.322200000000     0.093750000000     0.076      
C        C      0.418466666667     0.348600000000     0.057100000000     0.978      
N        N      0.418666666667     0.389450000000     0.194900000000    -0.19       
N        N      0.363000000000     0.426200000000     0.209250000000    -0.091      
N        N      0.499800000000     0.386850000000     0.382500000000    -0.173      
N        N      0.521533333333     0.332400000000     0.455000000000    -0.091      
O        O      0.570666666667     0.336800000000     0.310750000000    -0.275      
O        O      0.588900000000     0.407400000000     0.305400000000    -0.247      
O        O      0.574466666667     0.404250000000     0.172200000000    -0.249      
O        O      0.569933333333     0.482300000000     0.180900000000    -0.244      
O        O      0.537900000000     0.175900000000     0.177800000000    -0.321      
O        O      0.557600000000     0.235900000000     0.120500000000    -0.227      
O        O      0.453300000000     0.278450000000     0.121850000000    -0.241      
O        O      0.473100000000     0.348650000000     0.090600000000    -0.246      
F        F      0.620100000000     0.280500000000     0.383250000000    -0.435      
F        F      0.644400000000     0.342400000000     0.369050000000    -0.416      
F        F      0.597400000000     0.343200000000     0.409000000000    -0.462      
F        F      0.612633333333     0.003100000000     0.108900000000    -0.413      
F        F      0.576133333333     0.478450000000     0.074200000000    -0.462      
F        F      0.627166666667     0.424850000000     0.110600000000    -0.444      
F        F      0.581533333333     0.150500000000     0.085500000000    -0.316      
F        F      0.584466666667     0.099650000000     0.156500000000    -0.471      
F        F      0.619433333333     0.146450000000     0.144300000000    -0.416      
F        F      0.388166666667     0.353150000000     0.077650000000    -0.459      
F        F      0.414566666667     0.398100000000     0.033750000000    -0.421      
F        F      0.426033333333     0.339500000000     0.018150000000    -0.319      
Ag       Ag     0.540856666667     0.471535000000     0.254230000000     0.476      
Ag       Ag     0.489260000000     0.415415000000     0.305850000000     0.502      
Ag       Ag     0.536903333333     0.376590000000     0.235670000000     0.481      
Ag       Ag     0.474186666667     0.343965000000     0.209615000000     0.454      
Ag       Ag     0.525440000000     0.308875000000     0.141785000000     0.508      
Ag       Ag     0.487140000000     0.234380000000     0.194080000000     0.472      
F        F      0.595333333333     0.167000000000     0.081500000000    -0.141      
F        F      0.412900000000     0.322000000000     0.030500000000    -0.232      
C        C      0.515566666667     0.051600000000     0.768800000000    -0.392      
C        C      0.523200000000     0.033700000000     0.812800000000     0.013      
C        C      0.532266666667     0.014800000000     0.865200000000    -0.018      
C        C      0.513300000000     0.041900000000     0.893850000000    -0.055      
H        H      0.494066666667     0.071750000000     0.880100000000     0.029      
C        C      0.522933333333     0.024650000000     0.943450000000     0.02       
H        H      0.510566666667     0.044000000000     0.962450000000     0.06       
C        C      0.549700000000     0.480700000000     0.964800000000    -0.048      
H        H      0.554533333333     0.468450000000     0.998500000000     0.13       
C        C      0.570366666667     0.453300000000     0.935650000000     0.012      
H        H      0.589733333333     0.423700000000     0.949750000000     0.123      
C        C      0.561500000000     0.470900000000     0.885750000000    -0.052      
H        H      0.575133333333     0.453350000000     0.866150000000     0.09       
C        C      0.471366666667     0.201700000000     0.774700000000    -0.437      
C        C      0.440233333333     0.228150000000     0.761150000000     0.032      
C        C      0.402700000000     0.259350000000     0.748400000000    -0.055      
C        C      0.388400000000     0.281250000000     0.700600000000    -0.005      
H        H      0.403033333333     0.275900000000     0.675550000000     0.08       
C        C      0.352600000000     0.311050000000     0.689850000000    -0.058      
H        H      0.343133333333     0.325700000000     0.657600000000     0.155      
C        C      0.664200000000     0.319150000000     0.726550000000     0.019      
H        H      0.639933333333     0.338850000000     0.718800000000     0.056      
C        C      0.344066666667     0.298800000000     0.774500000000    -0.064      
H        H      0.662466666667     0.305350000000     0.798900000000     0.127      
C        C      0.380400000000     0.268050000000     0.786150000000    -0.001      
H        H      0.389733333333     0.253500000000     0.818500000000     0.069      
C        C      0.604666666667     0.108200000000     0.771250000000     0.085      
H        H      0.599566666667     0.127650000000     0.738300000000     0.038      
C        C      0.598500000000     0.076500000000     0.847800000000     0.042      
H        H      0.588366666667     0.070050000000     0.877950000000     0.072      
C        C      0.633033333333     0.053150000000     0.839450000000     0.006      
H        H      0.650700000000     0.027750000000     0.862600000000     0.139      
C        C      0.336300000000     0.061800000000     0.763450000000    -0.068      
H        H      0.356366666667     0.068050000000     0.777700000000     0.091      
H        H      0.664766666667     0.085250000000     0.729950000000     0.118      
C        C      0.347600000000     0.005950000000     0.763450000000    -0.104      
H        H      0.351566666667     0.482450000000     0.796950000000     0.141      
H        H      0.370500000000     0.499500000000     0.748100000000     0.094      
C        C      0.511466666667     0.088700000000     0.584550000000     0.049      
H        H      0.525633333333     0.054300000000     0.591900000000     0.082      
C        C      0.498733333333     0.122550000000     0.538550000000     0.041      
H        H      0.503033333333     0.116150000000     0.509150000000     0.074      
C        C      0.480266666667     0.160850000000     0.592500000000     0.128      
H        H      0.469033333333     0.186200000000     0.606250000000     0.022      
C        C      0.461500000000     0.216600000000     0.506200000000    -0.091      
H        H      0.443466666667     0.239050000000     0.519800000000     0.171      
H        H      0.449000000000     0.209450000000     0.981850000000     0.121      
C        C      0.488666666667     0.244700000000     0.981750000000    -0.084      
H        H      0.475733333333     0.277600000000     0.957600000000     0.126      
H        H      0.505000000000     0.224000000000     0.964850000000     0.101      
C        C      0.411833333333     0.138750000000     0.675500000000     0.103      
C        C      0.387200000000     0.168400000000     0.628600000000     0.828      
C        C      0.421000000000     0.051000000000     0.839450000000     0.125      
C        C      0.400833333333     0.036150000000     0.887150000000     0.826      
C        C      0.442766666667     0.308900000000     0.856600000000     0.129      
C        C      0.413933333333     0.351700000000     0.869400000000     0.818      
C        C      0.548000000000     0.177800000000     0.906250000000     0.076      
C        C      0.581533333333     0.151400000000     0.942900000000     0.978      
N        N      0.581333333333     0.110550000000     0.805100000000    -0.19       
N        N      0.637000000000     0.073800000000     0.790750000000    -0.091      
N        N      0.500200000000     0.113150000000     0.617500000000    -0.173      
N        N      0.478466666667     0.167600000000     0.545000000000    -0.091      
O        O      0.429333333333     0.163200000000     0.689250000000    -0.275      
O        O      0.411100000000     0.092600000000     0.694600000000    -0.247      
O        O      0.425533333333     0.095750000000     0.827800000000    -0.249      
O        O      0.430066666667     0.017700000000     0.819100000000    -0.244      
O        O      0.462100000000     0.324100000000     0.822200000000    -0.321      
O        O      0.442400000000     0.264100000000     0.879500000000    -0.227      
O        O      0.546700000000     0.221550000000     0.878150000000    -0.241      
O        O      0.526900000000     0.151350000000     0.909400000000    -0.246      
F        F      0.379900000000     0.219500000000     0.616750000000    -0.435      
F        F      0.355600000000     0.157600000000     0.630950000000    -0.416      
F        F      0.402600000000     0.156800000000     0.591000000000    -0.462      
F        F      0.387366666667     0.496900000000     0.891100000000    -0.413      
F        F      0.423866666667     0.021550000000     0.925800000000    -0.462      
F        F      0.372833333333     0.075150000000     0.889400000000    -0.444      
F        F      0.418466666667     0.349500000000     0.914500000000    -0.316      
F        F      0.415533333333     0.400350000000     0.843500000000    -0.471      
F        F      0.380566666667     0.353550000000     0.855700000000    -0.416      
F        F      0.611833333333     0.146850000000     0.922350000000    -0.459      
F        F      0.585433333333     0.101900000000     0.966250000000    -0.421      
F        F      0.573966666667     0.160500000000     0.981850000000    -0.319      
Ag       Ag     0.459143333333     0.028465000000     0.745770000000     0.476      
Ag       Ag     0.510740000000     0.084585000000     0.694150000000     0.502      
Ag       Ag     0.463096666667     0.123410000000     0.764330000000     0.481      
Ag       Ag     0.525813333333     0.156035000000     0.790385000000     0.454      
Ag       Ag     0.474560000000     0.191125000000     0.858215000000     0.508      
Ag       Ag     0.512860000000     0.265620000000     0.805920000000     0.472      
F        F      0.404666666667     0.333000000000     0.918500000000    -0.141      
F        F      0.587100000000     0.178000000000     0.969500000000    -0.232      
C        C      0.484433333333     0.448400000000     0.731200000000    -0.391      
C        C      0.476800000000     0.466300000000     0.687200000000     0.014      
C        C      0.467733333333     0.485200000000     0.634800000000    -0.017      
C        C      0.486700000000     0.458100000000     0.606150000000    -0.054      
H        H      0.505933333333     0.428250000000     0.619900000000     0.029      
C        C      0.477066666667     0.475350000000     0.556550000000     0.02       
H        H      0.489433333333     0.456000000000     0.537550000000     0.06       
C        C      0.450300000000     0.019300000000     0.535200000000    -0.048      
H        H      0.445466666667     0.031550000000     0.501500000000     0.13       
C        C      0.429633333333     0.046700000000     0.564350000000     0.012      
H        H      0.410266666667     0.076300000000     0.550250000000     0.123      
C        C      0.438500000000     0.029100000000     0.614250000000    -0.052      
H        H      0.424866666667     0.046650000000     0.633850000000     0.09       
C        C      0.528633333333     0.298300000000     0.725300000000    -0.437      
C        C      0.559766666667     0.271850000000     0.738850000000     0.032      
C        C      0.597300000000     0.240650000000     0.751600000000    -0.055      
C        C      0.611600000000     0.218750000000     0.799400000000    -0.005      
H        H      0.596966666667     0.224100000000     0.824450000000     0.08       
C        C      0.647400000000     0.188950000000     0.810150000000    -0.058      
H        H      0.656866666667     0.174300000000     0.842400000000     0.155      
C        C      0.335800000000     0.180850000000     0.773450000000     0.019      
H        H      0.360066666667     0.161150000000     0.781200000000     0.056      
C        C      0.655933333333     0.201200000000     0.725500000000    -0.064      
H        H      0.337533333333     0.194650000000     0.701100000000     0.127      
C        C      0.619600000000     0.231950000000     0.713850000000    -0.001      
H        H      0.610266666667     0.246500000000     0.681500000000     0.069      
C        C      0.395333333333     0.391800000000     0.728750000000     0.085      
H        H      0.400433333333     0.372350000000     0.761700000000     0.038      
C        C      0.401500000000     0.423500000000     0.652200000000     0.042      
H        H      0.411633333333     0.429950000000     0.622050000000     0.072      
C        C      0.366966666667     0.446850000000     0.660550000000     0.006      
H        H      0.349300000000     0.472250000000     0.637400000000     0.139      
C        C      0.663700000000     0.438200000000     0.736550000000    -0.068      
H        H      0.643633333333     0.431950000000     0.722300000000     0.091      
H        H      0.335233333333     0.414750000000     0.770050000000     0.118      
C        C      0.652400000000     0.494050000000     0.736550000000    -0.104      
H        H      0.648433333333     0.017550000000     0.703050000000     0.141      
H        H      0.629500000000     0.000500000000     0.751900000000     0.094      
C        C      0.488533333333     0.411300000000     0.915450000000     0.049      
H        H      0.474366666667     0.445700000000     0.908100000000     0.082      
C        C      0.501266666667     0.377450000000     0.961450000000     0.041      
H        H      0.496966666667     0.383850000000     0.990850000000     0.074      
C        C      0.519733333333     0.339150000000     0.907500000000     0.128      
H        H      0.530966666667     0.313800000000     0.893750000000     0.022      
C        C      0.538500000000     0.283400000000     0.993800000000    -0.091      
H        H      0.556533333333     0.260950000000     0.980200000000     0.171      
H        H      0.551000000000     0.290550000000     0.518150000000     0.121      
C        C      0.511333333333     0.255300000000     0.518250000000    -0.084      
H        H      0.524266666667     0.222400000000     0.542400000000     0.126      
H        H      0.495000000000     0.276000000000     0.535150000000     0.101      
C        C      0.588166666667     0.361250000000     0.824500000000     0.103      
C        C      0.612800000000     0.331600000000     0.871400000000     0.828      
C        C      0.579000000000     0.449000000000     0.660550000000     0.125      
C        C      0.599166666667     0.463850000000     0.612850000000     0.826      
C        C      0.557233333333     0.191100000000     0.643400000000     0.129      
C        C      0.586066666667     0.148300000000     0.630600000000     0.818      
C        C      0.452000000000     0.322200000000     0.593750000000     0.076      
C        C      0.418466666667     0.348600000000     0.557100000000     0.978      
N        N      0.418666666667     0.389450000000     0.694900000000    -0.19       
N        N      0.363000000000     0.426200000000     0.709250000000    -0.091      
N        N      0.499800000000     0.386850000000     0.882500000000    -0.173      
N        N      0.521533333333     0.332400000000     0.955000000000    -0.091      
O        O      0.570666666667     0.336800000000     0.810750000000    -0.275      
O        O      0.588900000000     0.407400000000     0.805400000000    -0.247      
O        O      0.574466666667     0.404250000000     0.672200000000    -0.249      
O        O      0.569933333333     0.482300000000     0.680900000000    -0.244      
O        O      0.537900000000     0.175900000000     0.677800000000    -0.321      
O        O      0.557600000000     0.235900000000     0.620500000000    -0.227      
O        O      0.453300000000     0.278450000000     0.621850000000    -0.241      
O        O      0.473100000000     0.348650000000     0.590600000000    -0.246      
F        F      0.620100000000     0.280500000000     0.883250000000    -0.435      
F        F      0.644400000000     0.342400000000     0.869050000000    -0.416      
F        F      0.597400000000     0.343200000000     0.909000000000    -0.462      
F        F      0.612633333333     0.003100000000     0.608900000000    -0.413      
F        F      0.576133333333     0.478450000000     0.574200000000    -0.462      
F        F      0.627166666667     0.424850000000     0.610600000000    -0.444      
F        F      0.581533333333     0.150500000000     0.585500000000    -0.316      
F        F      0.584466666667     0.099650000000     0.656500000000    -0.471      
F        F      0.619433333333     0.146450000000     0.644300000000    -0.416      
F        F      0.388166666667     0.353150000000     0.577650000000    -0.459      
F        F      0.414566666667     0.398100000000     0.533750000000    -0.421      
F        F      0.426033333333     0.339500000000     0.518150000000    -0.319      
Ag       Ag     0.540856666667     0.471535000000     0.754230000000     0.476      
Ag       Ag     0.489260000000     0.415415000000     0.805850000000     0.502      
Ag       Ag     0.536903333333     0.376590000000     0.735670000000     0.481      
Ag       Ag     0.474186666667     0.343965000000     0.709615000000     0.454      
Ag       Ag     0.525440000000     0.308875000000     0.641785000000     0.508      
Ag       Ag     0.487140000000     0.234380000000     0.694080000000     0.472      
F        F      0.595333333333     0.167000000000     0.581500000000    -0.141      
F        F      0.412900000000     0.322000000000     0.530500000000    -0.232      
C        C      0.515566666667     0.551600000000     0.268800000000    -0.392      
C        C      0.523200000000     0.533700000000     0.312800000000     0.013      
C        C      0.532266666667     0.514800000000     0.365200000000    -0.018      
C        C      0.513300000000     0.541900000000     0.393850000000    -0.055      
H        H      0.494066666667     0.571750000000     0.380100000000     0.029      
C        C      0.522933333333     0.524650000000     0.443450000000     0.02       
H        H      0.510566666667     0.544000000000     0.462450000000     0.06       
C        C      0.549700000000     0.980700000000     0.464800000000    -0.048      
H        H      0.554533333333     0.968450000000     0.498500000000     0.13       
C        C      0.570366666667     0.953300000000     0.435650000000     0.012      
H        H      0.589733333333     0.923700000000     0.449750000000     0.123      
C        C      0.561500000000     0.970900000000     0.385750000000    -0.052      
H        H      0.575133333333     0.953350000000     0.366150000000     0.09       
C        C      0.471366666667     0.701700000000     0.274700000000    -0.437      
C        C      0.440233333333     0.728150000000     0.261150000000     0.032      
C        C      0.402700000000     0.759350000000     0.248400000000    -0.055      
C        C      0.388400000000     0.781250000000     0.200600000000    -0.005      
H        H      0.403033333333     0.775900000000     0.175550000000     0.08       
C        C      0.352600000000     0.811050000000     0.189850000000    -0.058      
H        H      0.343133333333     0.825700000000     0.157600000000     0.155      
C        C      0.664200000000     0.819150000000     0.226550000000     0.019      
H        H      0.639933333333     0.838850000000     0.218800000000     0.056      
C        C      0.344066666667     0.798800000000     0.274500000000    -0.064      
H        H      0.662466666667     0.805350000000     0.298900000000     0.127      
C        C      0.380400000000     0.768050000000     0.286150000000    -0.001      
H        H      0.389733333333     0.753500000000     0.318500000000     0.069      
C        C      0.604666666667     0.608200000000     0.271250000000     0.085      
H        H      0.599566666667     0.627650000000     0.238300000000     0.038      
C        C      0.598500000000     0.576500000000     0.347800000000     0.042      
H        H      0.588366666667     0.570050000000     0.377950000000     0.072      
C        C      0.633033333333     0.553150000000     0.339450000000     0.006      
H        H      0.650700000000     0.527750000000     0.362600000000     0.139      
C        C      0.336300000000     0.561800000000     0.263450000000    -0.068      
H        H      0.356366666667     0.568050000000     0.277700000000     0.091      
H        H      0.664766666667     0.585250000000     0.229950000000     0.118      
C        C      0.347600000000     0.505950000000     0.263450000000    -0.104      
H        H      0.351566666667     0.982450000000     0.296950000000     0.141      
H        H      0.370500000000     0.999500000000     0.248100000000     0.094      
C        C      0.511466666667     0.588700000000     0.084550000000     0.049      
H        H      0.525633333333     0.554300000000     0.091900000000     0.082      
C        C      0.498733333333     0.622550000000     0.038550000000     0.041      
H        H      0.503033333333     0.616150000000     0.009150000000     0.074      
C        C      0.480266666667     0.660850000000     0.092500000000     0.128      
H        H      0.469033333333     0.686200000000     0.106250000000     0.022      
C        C      0.461500000000     0.716600000000     0.006200000000    -0.091      
H        H      0.443466666667     0.739050000000     0.019800000000     0.171      
H        H      0.449000000000     0.709450000000     0.481850000000     0.121      
C        C      0.488666666667     0.744700000000     0.481750000000    -0.084      
H        H      0.475733333333     0.777600000000     0.457600000000     0.126      
H        H      0.505000000000     0.724000000000     0.464850000000     0.101      
C        C      0.411833333333     0.638750000000     0.175500000000     0.103      
C        C      0.387200000000     0.668400000000     0.128600000000     0.828      
C        C      0.421000000000     0.551000000000     0.339450000000     0.125      
C        C      0.400833333333     0.536150000000     0.387150000000     0.826      
C        C      0.442766666667     0.808900000000     0.356600000000     0.129      
C        C      0.413933333333     0.851700000000     0.369400000000     0.818      
C        C      0.548000000000     0.677800000000     0.406250000000     0.076      
C        C      0.581533333333     0.651400000000     0.442900000000     0.978      
N        N      0.581333333333     0.610550000000     0.305100000000    -0.19       
N        N      0.637000000000     0.573800000000     0.290750000000    -0.091      
N        N      0.500200000000     0.613150000000     0.117500000000    -0.173      
N        N      0.478466666667     0.667600000000     0.045000000000    -0.091      
O        O      0.429333333333     0.663200000000     0.189250000000    -0.275      
O        O      0.411100000000     0.592600000000     0.194600000000    -0.247      
O        O      0.425533333333     0.595750000000     0.327800000000    -0.249      
O        O      0.430066666667     0.517700000000     0.319100000000    -0.244      
O        O      0.462100000000     0.824100000000     0.322200000000    -0.321      
O        O      0.442400000000     0.764100000000     0.379500000000    -0.227      
O        O      0.546700000000     0.721550000000     0.378150000000    -0.241      
O        O      0.526900000000     0.651350000000     0.409400000000    -0.246      
F        F      0.379900000000     0.719500000000     0.116750000000    -0.435      
F        F      0.355600000000     0.657600000000     0.130950000000    -0.416      
F        F      0.402600000000     0.656800000000     0.091000000000    -0.462      
F        F      0.387366666667     0.996900000000     0.391100000000    -0.413      
F        F      0.423866666667     0.521550000000     0.425800000000    -0.462      
F        F      0.372833333333     0.575150000000     0.389400000000    -0.444      
F        F      0.418466666667     0.849500000000     0.414500000000    -0.316      
F        F      0.415533333333     0.900350000000     0.343500000000    -0.471      
F        F      0.380566666667     0.853550000000     0.355700000000    -0.416      
F        F      0.611833333333     0.646850000000     0.422350000000    -0.459      
F        F      0.585433333333     0.601900000000     0.466250000000    -0.421      
F        F      0.573966666667     0.660500000000     0.481850000000    -0.319      
Ag       Ag     0.459143333333     0.528465000000     0.245770000000     0.476      
Ag       Ag     0.510740000000     0.584585000000     0.194150000000     0.502      
Ag       Ag     0.463096666667     0.623410000000     0.264330000000     0.481      
Ag       Ag     0.525813333333     0.656035000000     0.290385000000     0.454      
Ag       Ag     0.474560000000     0.691125000000     0.358215000000     0.508      
Ag       Ag     0.512860000000     0.765620000000     0.305920000000     0.472      
F        F      0.404666666667     0.833000000000     0.418500000000    -0.141      
F        F      0.587100000000     0.678000000000     0.469500000000    -0.232      
C        C      0.484433333333     0.948400000000     0.231200000000    -0.391      
C        C      0.476800000000     0.966300000000     0.187200000000     0.014      
C        C      0.467733333333     0.985200000000     0.134800000000    -0.017      
C        C      0.486700000000     0.958100000000     0.106150000000    -0.054      
H        H      0.505933333333     0.928250000000     0.119900000000     0.029      
C        C      0.477066666667     0.975350000000     0.056550000000     0.02       
H        H      0.489433333333     0.956000000000     0.037550000000     0.06       
C        C      0.450300000000     0.519300000000     0.035200000000    -0.048      
H        H      0.445466666667     0.531550000000     0.001500000000     0.13       
C        C      0.429633333333     0.546700000000     0.064350000000     0.012      
H        H      0.410266666667     0.576300000000     0.050250000000     0.123      
C        C      0.438500000000     0.529100000000     0.114250000000    -0.052      
H        H      0.424866666667     0.546650000000     0.133850000000     0.09       
C        C      0.528633333333     0.798300000000     0.225300000000    -0.437      
C        C      0.559766666667     0.771850000000     0.238850000000     0.032      
C        C      0.597300000000     0.740650000000     0.251600000000    -0.055      
C        C      0.611600000000     0.718750000000     0.299400000000    -0.005      
H        H      0.596966666667     0.724100000000     0.324450000000     0.08       
C        C      0.647400000000     0.688950000000     0.310150000000    -0.058      
H        H      0.656866666667     0.674300000000     0.342400000000     0.155      
C        C      0.335800000000     0.680850000000     0.273450000000     0.019      
H        H      0.360066666667     0.661150000000     0.281200000000     0.056      
C        C      0.655933333333     0.701200000000     0.225500000000    -0.064      
H        H      0.337533333333     0.694650000000     0.201100000000     0.127      
C        C      0.619600000000     0.731950000000     0.213850000000    -0.001      
H        H      0.610266666667     0.746500000000     0.181500000000     0.069      
C        C      0.395333333333     0.891800000000     0.228750000000     0.085      
H        H      0.400433333333     0.872350000000     0.261700000000     0.038      
C        C      0.401500000000     0.923500000000     0.152200000000     0.042      
H        H      0.411633333333     0.929950000000     0.122050000000     0.072      
C        C      0.366966666667     0.946850000000     0.160550000000     0.006      
H        H      0.349300000000     0.972250000000     0.137400000000     0.139      
C        C      0.663700000000     0.938200000000     0.236550000000    -0.068      
H        H      0.643633333333     0.931950000000     0.222300000000     0.091      
H        H      0.335233333333     0.914750000000     0.270050000000     0.118      
C        C      0.652400000000     0.994050000000     0.236550000000    -0.104      
H        H      0.648433333333     0.517550000000     0.203050000000     0.141      
H        H      0.629500000000     0.500500000000     0.251900000000     0.094      
C        C      0.488533333333     0.911300000000     0.415450000000     0.049      
H        H      0.474366666667     0.945700000000     0.408100000000     0.082      
C        C      0.501266666667     0.877450000000     0.461450000000     0.041      
H        H      0.496966666667     0.883850000000     0.490850000000     0.074      
C        C      0.519733333333     0.839150000000     0.407500000000     0.128      
H        H      0.530966666667     0.813800000000     0.393750000000     0.022      
C        C      0.538500000000     0.783400000000     0.493800000000    -0.091      
H        H      0.556533333333     0.760950000000     0.480200000000     0.171      
H        H      0.551000000000     0.790550000000     0.018150000000     0.121      
C        C      0.511333333333     0.755300000000     0.018250000000    -0.084      
H        H      0.524266666667     0.722400000000     0.042400000000     0.126      
H        H      0.495000000000     0.776000000000     0.035150000000     0.101      
C        C      0.588166666667     0.861250000000     0.324500000000     0.103      
C        C      0.612800000000     0.831600000000     0.371400000000     0.828      
C        C      0.579000000000     0.949000000000     0.160550000000     0.125      
C        C      0.599166666667     0.963850000000     0.112850000000     0.826      
C        C      0.557233333333     0.691100000000     0.143400000000     0.129      
C        C      0.586066666667     0.648300000000     0.130600000000     0.818      
C        C      0.452000000000     0.822200000000     0.093750000000     0.076      
C        C      0.418466666667     0.848600000000     0.057100000000     0.978      
N        N      0.418666666667     0.889450000000     0.194900000000    -0.19       
N        N      0.363000000000     0.926200000000     0.209250000000    -0.091      
N        N      0.499800000000     0.886850000000     0.382500000000    -0.173      
N        N      0.521533333333     0.832400000000     0.455000000000    -0.091      
O        O      0.570666666667     0.836800000000     0.310750000000    -0.275      
O        O      0.588900000000     0.907400000000     0.305400000000    -0.247      
O        O      0.574466666667     0.904250000000     0.172200000000    -0.249      
O        O      0.569933333333     0.982300000000     0.180900000000    -0.244      
O        O      0.537900000000     0.675900000000     0.177800000000    -0.321      
O        O      0.557600000000     0.735900000000     0.120500000000    -0.227      
O        O      0.453300000000     0.778450000000     0.121850000000    -0.241      
O        O      0.473100000000     0.848650000000     0.090600000000    -0.246      
F        F      0.620100000000     0.780500000000     0.383250000000    -0.435      
F        F      0.644400000000     0.842400000000     0.369050000000    -0.416      
F        F      0.597400000000     0.843200000000     0.409000000000    -0.462      
F        F      0.612633333333     0.503100000000     0.108900000000    -0.413      
F        F      0.576133333333     0.978450000000     0.074200000000    -0.462      
F        F      0.627166666667     0.924850000000     0.110600000000    -0.444      
F        F      0.581533333333     0.650500000000     0.085500000000    -0.316      
F        F      0.584466666667     0.599650000000     0.156500000000    -0.471      
F        F      0.619433333333     0.646450000000     0.144300000000    -0.416      
F        F      0.388166666667     0.853150000000     0.077650000000    -0.459      
F        F      0.414566666667     0.898100000000     0.033750000000    -0.421      
F        F      0.426033333333     0.839500000000     0.018150000000    -0.319      
Ag       Ag     0.540856666667     0.971535000000     0.254230000000     0.476      
Ag       Ag     0.489260000000     0.915415000000     0.305850000000     0.502      
Ag       Ag     0.536903333333     0.876590000000     0.235670000000     0.481      
Ag       Ag     0.474186666667     0.843965000000     0.209615000000     0.454      
Ag       Ag     0.525440000000     0.808875000000     0.141785000000     0.508      
Ag       Ag     0.487140000000     0.734380000000     0.194080000000     0.472      
F        F      0.595333333333     0.667000000000     0.081500000000    -0.141      
F        F      0.412900000000     0.822000000000     0.030500000000    -0.232      
C        C      0.515566666667     0.551600000000     0.768800000000    -0.392      
C        C      0.523200000000     0.533700000000     0.812800000000     0.013      
C        C      0.532266666667     0.514800000000     0.865200000000    -0.018      
C        C      0.513300000000     0.541900000000     0.893850000000    -0.055      
H        H      0.494066666667     0.571750000000     0.880100000000     0.029      
C        C      0.522933333333     0.524650000000     0.943450000000     0.02       
H        H      0.510566666667     0.544000000000     0.962450000000     0.06       
C        C      0.549700000000     0.980700000000     0.964800000000    -0.048      
H        H      0.554533333333     0.968450000000     0.998500000000     0.13       
C        C      0.570366666667     0.953300000000     0.935650000000     0.012      
H        H      0.589733333333     0.923700000000     0.949750000000     0.123      
C        C      0.561500000000     0.970900000000     0.885750000000    -0.052      
H        H      0.575133333333     0.953350000000     0.866150000000     0.09       
C        C      0.471366666667     0.701700000000     0.774700000000    -0.437      
C        C      0.440233333333     0.728150000000     0.761150000000     0.032      
C        C      0.402700000000     0.759350000000     0.748400000000    -0.055      
C        C      0.388400000000     0.781250000000     0.700600000000    -0.005      
H        H      0.403033333333     0.775900000000     0.675550000000     0.08       
C        C      0.352600000000     0.811050000000     0.689850000000    -0.058      
H        H      0.343133333333     0.825700000000     0.657600000000     0.155      
C        C      0.664200000000     0.819150000000     0.726550000000     0.019      
H        H      0.639933333333     0.838850000000     0.718800000000     0.056      
C        C      0.344066666667     0.798800000000     0.774500000000    -0.064      
H        H      0.662466666667     0.805350000000     0.798900000000     0.127      
C        C      0.380400000000     0.768050000000     0.786150000000    -0.001      
H        H      0.389733333333     0.753500000000     0.818500000000     0.069      
C        C      0.604666666667     0.608200000000     0.771250000000     0.085      
H        H      0.599566666667     0.627650000000     0.738300000000     0.038      
C        C      0.598500000000     0.576500000000     0.847800000000     0.042      
H        H      0.588366666667     0.570050000000     0.877950000000     0.072      
C        C      0.633033333333     0.553150000000     0.839450000000     0.006      
H        H      0.650700000000     0.527750000000     0.862600000000     0.139      
C        C      0.336300000000     0.561800000000     0.763450000000    -0.068      
H        H      0.356366666667     0.568050000000     0.777700000000     0.091      
H        H      0.664766666667     0.585250000000     0.729950000000     0.118      
C        C      0.347600000000     0.505950000000     0.763450000000    -0.104      
H        H      0.351566666667     0.982450000000     0.796950000000     0.141      
H        H      0.370500000000     0.999500000000     0.748100000000     0.094      
C        C      0.511466666667     0.588700000000     0.584550000000     0.049      
H        H      0.525633333333     0.554300000000     0.591900000000     0.082      
C        C      0.498733333333     0.622550000000     0.538550000000     0.041      
H        H      0.503033333333     0.616150000000     0.509150000000     0.074      
C        C      0.480266666667     0.660850000000     0.592500000000     0.128      
H        H      0.469033333333     0.686200000000     0.606250000000     0.022      
C        C      0.461500000000     0.716600000000     0.506200000000    -0.091      
H        H      0.443466666667     0.739050000000     0.519800000000     0.171      
H        H      0.449000000000     0.709450000000     0.981850000000     0.121      
C        C      0.488666666667     0.744700000000     0.981750000000    -0.084      
H        H      0.475733333333     0.777600000000     0.957600000000     0.126      
H        H      0.505000000000     0.724000000000     0.964850000000     0.101      
C        C      0.411833333333     0.638750000000     0.675500000000     0.103      
C        C      0.387200000000     0.668400000000     0.628600000000     0.828      
C        C      0.421000000000     0.551000000000     0.839450000000     0.125      
C        C      0.400833333333     0.536150000000     0.887150000000     0.826      
C        C      0.442766666667     0.808900000000     0.856600000000     0.129      
C        C      0.413933333333     0.851700000000     0.869400000000     0.818      
C        C      0.548000000000     0.677800000000     0.906250000000     0.076      
C        C      0.581533333333     0.651400000000     0.942900000000     0.978      
N        N      0.581333333333     0.610550000000     0.805100000000    -0.19       
N        N      0.637000000000     0.573800000000     0.790750000000    -0.091      
N        N      0.500200000000     0.613150000000     0.617500000000    -0.173      
N        N      0.478466666667     0.667600000000     0.545000000000    -0.091      
O        O      0.429333333333     0.663200000000     0.689250000000    -0.275      
O        O      0.411100000000     0.592600000000     0.694600000000    -0.247      
O        O      0.425533333333     0.595750000000     0.827800000000    -0.249      
O        O      0.430066666667     0.517700000000     0.819100000000    -0.244      
O        O      0.462100000000     0.824100000000     0.822200000000    -0.321      
O        O      0.442400000000     0.764100000000     0.879500000000    -0.227      
O        O      0.546700000000     0.721550000000     0.878150000000    -0.241      
O        O      0.526900000000     0.651350000000     0.909400000000    -0.246      
F        F      0.379900000000     0.719500000000     0.616750000000    -0.435      
F        F      0.355600000000     0.657600000000     0.630950000000    -0.416      
F        F      0.402600000000     0.656800000000     0.591000000000    -0.462      
F        F      0.387366666667     0.996900000000     0.891100000000    -0.413      
F        F      0.423866666667     0.521550000000     0.925800000000    -0.462      
F        F      0.372833333333     0.575150000000     0.889400000000    -0.444      
F        F      0.418466666667     0.849500000000     0.914500000000    -0.316      
F        F      0.415533333333     0.900350000000     0.843500000000    -0.471      
F        F      0.380566666667     0.853550000000     0.855700000000    -0.416      
F        F      0.611833333333     0.646850000000     0.922350000000    -0.459      
F        F      0.585433333333     0.601900000000     0.966250000000    -0.421      
F        F      0.573966666667     0.660500000000     0.981850000000    -0.319      
Ag       Ag     0.459143333333     0.528465000000     0.745770000000     0.476      
Ag       Ag     0.510740000000     0.584585000000     0.694150000000     0.502      
Ag       Ag     0.463096666667     0.623410000000     0.764330000000     0.481      
Ag       Ag     0.525813333333     0.656035000000     0.790385000000     0.454      
Ag       Ag     0.474560000000     0.691125000000     0.858215000000     0.508      
Ag       Ag     0.512860000000     0.765620000000     0.805920000000     0.472      
F        F      0.404666666667     0.833000000000     0.918500000000    -0.141      
F        F      0.587100000000     0.678000000000     0.969500000000    -0.232      
C        C      0.484433333333     0.948400000000     0.731200000000    -0.391      
C        C      0.476800000000     0.966300000000     0.687200000000     0.014      
C        C      0.467733333333     0.985200000000     0.634800000000    -0.017      
C        C      0.486700000000     0.958100000000     0.606150000000    -0.054      
H        H      0.505933333333     0.928250000000     0.619900000000     0.029      
C        C      0.477066666667     0.975350000000     0.556550000000     0.02       
H        H      0.489433333333     0.956000000000     0.537550000000     0.06       
C        C      0.450300000000     0.519300000000     0.535200000000    -0.048      
H        H      0.445466666667     0.531550000000     0.501500000000     0.13       
C        C      0.429633333333     0.546700000000     0.564350000000     0.012      
H        H      0.410266666667     0.576300000000     0.550250000000     0.123      
C        C      0.438500000000     0.529100000000     0.614250000000    -0.052      
H        H      0.424866666667     0.546650000000     0.633850000000     0.09       
C        C      0.528633333333     0.798300000000     0.725300000000    -0.437      
C        C      0.559766666667     0.771850000000     0.738850000000     0.032      
C        C      0.597300000000     0.740650000000     0.751600000000    -0.055      
C        C      0.611600000000     0.718750000000     0.799400000000    -0.005      
H        H      0.596966666667     0.724100000000     0.824450000000     0.08       
C        C      0.647400000000     0.688950000000     0.810150000000    -0.058      
H        H      0.656866666667     0.674300000000     0.842400000000     0.155      
C        C      0.335800000000     0.680850000000     0.773450000000     0.019      
H        H      0.360066666667     0.661150000000     0.781200000000     0.056      
C        C      0.655933333333     0.701200000000     0.725500000000    -0.064      
H        H      0.337533333333     0.694650000000     0.701100000000     0.127      
C        C      0.619600000000     0.731950000000     0.713850000000    -0.001      
H        H      0.610266666667     0.746500000000     0.681500000000     0.069      
C        C      0.395333333333     0.891800000000     0.728750000000     0.085      
H        H      0.400433333333     0.872350000000     0.761700000000     0.038      
C        C      0.401500000000     0.923500000000     0.652200000000     0.042      
H        H      0.411633333333     0.929950000000     0.622050000000     0.072      
C        C      0.366966666667     0.946850000000     0.660550000000     0.006      
H        H      0.349300000000     0.972250000000     0.637400000000     0.139      
C        C      0.663700000000     0.938200000000     0.736550000000    -0.068      
H        H      0.643633333333     0.931950000000     0.722300000000     0.091      
H        H      0.335233333333     0.914750000000     0.770050000000     0.118      
C        C      0.652400000000     0.994050000000     0.736550000000    -0.104      
H        H      0.648433333333     0.517550000000     0.703050000000     0.141      
H        H      0.629500000000     0.500500000000     0.751900000000     0.094      
C        C      0.488533333333     0.911300000000     0.915450000000     0.049      
H        H      0.474366666667     0.945700000000     0.908100000000     0.082      
C        C      0.501266666667     0.877450000000     0.961450000000     0.041      
H        H      0.496966666667     0.883850000000     0.990850000000     0.074      
C        C      0.519733333333     0.839150000000     0.907500000000     0.128      
H        H      0.530966666667     0.813800000000     0.893750000000     0.022      
C        C      0.538500000000     0.783400000000     0.993800000000    -0.091      
H        H      0.556533333333     0.760950000000     0.980200000000     0.171      
H        H      0.551000000000     0.790550000000     0.518150000000     0.121      
C        C      0.511333333333     0.755300000000     0.518250000000    -0.084      
H        H      0.524266666667     0.722400000000     0.542400000000     0.126      
H        H      0.495000000000     0.776000000000     0.535150000000     0.101      
C        C      0.588166666667     0.861250000000     0.824500000000     0.103      
C        C      0.612800000000     0.831600000000     0.871400000000     0.828      
C        C      0.579000000000     0.949000000000     0.660550000000     0.125      
C        C      0.599166666667     0.963850000000     0.612850000000     0.826      
C        C      0.557233333333     0.691100000000     0.643400000000     0.129      
C        C      0.586066666667     0.648300000000     0.630600000000     0.818      
C        C      0.452000000000     0.822200000000     0.593750000000     0.076      
C        C      0.418466666667     0.848600000000     0.557100000000     0.978      
N        N      0.418666666667     0.889450000000     0.694900000000    -0.19       
N        N      0.363000000000     0.926200000000     0.709250000000    -0.091      
N        N      0.499800000000     0.886850000000     0.882500000000    -0.173      
N        N      0.521533333333     0.832400000000     0.955000000000    -0.091      
O        O      0.570666666667     0.836800000000     0.810750000000    -0.275      
O        O      0.588900000000     0.907400000000     0.805400000000    -0.247      
O        O      0.574466666667     0.904250000000     0.672200000000    -0.249      
O        O      0.569933333333     0.982300000000     0.680900000000    -0.244      
O        O      0.537900000000     0.675900000000     0.677800000000    -0.321      
O        O      0.557600000000     0.735900000000     0.620500000000    -0.227      
O        O      0.453300000000     0.778450000000     0.621850000000    -0.241      
O        O      0.473100000000     0.848650000000     0.590600000000    -0.246      
F        F      0.620100000000     0.780500000000     0.883250000000    -0.435      
F        F      0.644400000000     0.842400000000     0.869050000000    -0.416      
F        F      0.597400000000     0.843200000000     0.909000000000    -0.462      
F        F      0.612633333333     0.503100000000     0.608900000000    -0.413      
F        F      0.576133333333     0.978450000000     0.574200000000    -0.462      
F        F      0.627166666667     0.924850000000     0.610600000000    -0.444      
F        F      0.581533333333     0.650500000000     0.585500000000    -0.316      
F        F      0.584466666667     0.599650000000     0.656500000000    -0.471      
F        F      0.619433333333     0.646450000000     0.644300000000    -0.416      
F        F      0.388166666667     0.853150000000     0.577650000000    -0.459      
F        F      0.414566666667     0.898100000000     0.533750000000    -0.421      
F        F      0.426033333333     0.839500000000     0.518150000000    -0.319      
Ag       Ag     0.540856666667     0.971535000000     0.754230000000     0.476      
Ag       Ag     0.489260000000     0.915415000000     0.805850000000     0.502      
Ag       Ag     0.536903333333     0.876590000000     0.735670000000     0.481      
Ag       Ag     0.474186666667     0.843965000000     0.709615000000     0.454      
Ag       Ag     0.525440000000     0.808875000000     0.641785000000     0.508      
Ag       Ag     0.487140000000     0.734380000000     0.694080000000     0.472      
F        F      0.595333333333     0.667000000000     0.581500000000    -0.141      
F        F      0.412900000000     0.822000000000     0.530500000000    -0.232      
C        C      0.848900000000     0.051600000000     0.268800000000    -0.392      
C        C      0.856533333333     0.033700000000     0.312800000000     0.013      
C        C      0.865600000000     0.014800000000     0.365200000000    -0.018      
C        C      0.846633333333     0.041900000000     0.393850000000    -0.055      
H        H      0.827400000000     0.071750000000     0.380100000000     0.029      
C        C      0.856266666667     0.024650000000     0.443450000000     0.02       
H        H      0.843900000000     0.044000000000     0.462450000000     0.06       
C        C      0.883033333333     0.480700000000     0.464800000000    -0.048      
H        H      0.887866666667     0.468450000000     0.498500000000     0.13       
C        C      0.903700000000     0.453300000000     0.435650000000     0.012      
H        H      0.923066666667     0.423700000000     0.449750000000     0.123      
C        C      0.894833333333     0.470900000000     0.385750000000    -0.052      
H        H      0.908466666667     0.453350000000     0.366150000000     0.09       
C        C      0.804700000000     0.201700000000     0.274700000000    -0.437      
C        C      0.773566666667     0.228150000000     0.261150000000     0.032      
C        C      0.736033333333     0.259350000000     0.248400000000    -0.055      
C        C      0.721733333333     0.281250000000     0.200600000000    -0.005      
H        H      0.736366666667     0.275900000000     0.175550000000     0.08       
C        C      0.685933333333     0.311050000000     0.189850000000    -0.058      
H        H      0.676466666667     0.325700000000     0.157600000000     0.155      
C        C      0.997533333333     0.319150000000     0.226550000000     0.019      
H        H      0.973266666667     0.338850000000     0.218800000000     0.056      
C        C      0.677400000000     0.298800000000     0.274500000000    -0.064      
H        H      0.995800000000     0.305350000000     0.298900000000     0.127      
C        C      0.713733333333     0.268050000000     0.286150000000    -0.001      
H        H      0.723066666667     0.253500000000     0.318500000000     0.069      
C        C      0.938000000000     0.108200000000     0.271250000000     0.085      
H        H      0.932900000000     0.127650000000     0.238300000000     0.038      
C        C      0.931833333333     0.076500000000     0.347800000000     0.042      
H        H      0.921700000000     0.070050000000     0.377950000000     0.072      
C        C      0.966366666667     0.053150000000     0.339450000000     0.006      
H        H      0.984033333333     0.027750000000     0.362600000000     0.139      
C        C      0.669633333333     0.061800000000     0.263450000000    -0.068      
H        H      0.689700000000     0.068050000000     0.277700000000     0.091      
H        H      0.998100000000     0.085250000000     0.229950000000     0.118      
C        C      0.680933333333     0.005950000000     0.263450000000    -0.104      
H        H      0.684900000000     0.482450000000     0.296950000000     0.141      
H        H      0.703833333333     0.499500000000     0.248100000000     0.094      
C        C      0.844800000000     0.088700000000     0.084550000000     0.049      
H        H      0.858966666667     0.054300000000     0.091900000000     0.082      
C        C      0.832066666667     0.122550000000     0.038550000000     0.041      
H        H      0.836366666667     0.116150000000     0.009150000000     0.074      
C        C      0.813600000000     0.160850000000     0.092500000000     0.128      
H        H      0.802366666667     0.186200000000     0.106250000000     0.022      
C        C      0.794833333333     0.216600000000     0.006200000000    -0.091      
H        H      0.776800000000     0.239050000000     0.019800000000     0.171      
H        H      0.782333333333     0.209450000000     0.481850000000     0.121      
C        C      0.822000000000     0.244700000000     0.481750000000    -0.084      
H        H      0.809066666667     0.277600000000     0.457600000000     0.126      
H        H      0.838333333333     0.224000000000     0.464850000000     0.101      
C        C      0.745166666667     0.138750000000     0.175500000000     0.103      
C        C      0.720533333333     0.168400000000     0.128600000000     0.828      
C        C      0.754333333333     0.051000000000     0.339450000000     0.125      
C        C      0.734166666667     0.036150000000     0.387150000000     0.826      
C        C      0.776100000000     0.308900000000     0.356600000000     0.129      
C        C      0.747266666667     0.351700000000     0.369400000000     0.818      
C        C      0.881333333333     0.177800000000     0.406250000000     0.076      
C        C      0.914866666667     0.151400000000     0.442900000000     0.978      
N        N      0.914666666667     0.110550000000     0.305100000000    -0.19       
N        N      0.970333333333     0.073800000000     0.290750000000    -0.091      
N        N      0.833533333333     0.113150000000     0.117500000000    -0.173      
N        N      0.811800000000     0.167600000000     0.045000000000    -0.091      
O        O      0.762666666667     0.163200000000     0.189250000000    -0.275      
O        O      0.744433333333     0.092600000000     0.194600000000    -0.247      
O        O      0.758866666667     0.095750000000     0.327800000000    -0.249      
O        O      0.763400000000     0.017700000000     0.319100000000    -0.244      
O        O      0.795433333333     0.324100000000     0.322200000000    -0.321      
O        O      0.775733333333     0.264100000000     0.379500000000    -0.227      
O        O      0.880033333333     0.221550000000     0.378150000000    -0.241      
O        O      0.860233333333     0.151350000000     0.409400000000    -0.246      
F        F      0.713233333333     0.219500000000     0.116750000000    -0.435      
F        F      0.688933333333     0.157600000000     0.130950000000    -0.416      
F        F      0.735933333333     0.156800000000     0.091000000000    -0.462      
F        F      0.720700000000     0.496900000000     0.391100000000    -0.413      
F        F      0.757200000000     0.021550000000     0.425800000000    -0.462      
F        F      0.706166666667     0.075150000000     0.389400000000    -0.444      
F        F      0.751800000000     0.349500000000     0.414500000000    -0.316      
F        F      0.748866666667     0.400350000000     0.343500000000    -0.471      
F        F      0.713900000000     0.353550000000     0.355700000000    -0.416      
F        F      0.945166666667     0.146850000000     0.422350000000    -0.459      
F        F      0.918766666667     0.101900000000     0.466250000000    -0.421      
F        F      0.907300000000     0.160500000000     0.481850000000    -0.319      
Ag       Ag     0.792476666667     0.028465000000     0.245770000000     0.476      
Ag       Ag     0.844073333333     0.084585000000     0.194150000000     0.502      
Ag       Ag     0.796430000000     0.123410000000     0.264330000000     0.481      
Ag       Ag     0.859146666667     0.156035000000     0.290385000000     0.454      
Ag       Ag     0.807893333333     0.191125000000     0.358215000000     0.508      
Ag       Ag     0.846193333333     0.265620000000     0.305920000000     0.472      
F        F      0.738000000000     0.333000000000     0.418500000000    -0.141      
F        F      0.920433333333     0.178000000000     0.469500000000    -0.232      
C        C      0.817766666667     0.448400000000     0.231200000000    -0.391      
C        C      0.810133333333     0.466300000000     0.187200000000     0.014      
C        C      0.801066666667     0.485200000000     0.134800000000    -0.017      
C        C      0.820033333333     0.458100000000     0.106150000000    -0.054      
H        H      0.839266666667     0.428250000000     0.119900000000     0.029      
C        C      0.810400000000     0.475350000000     0.056550000000     0.02       
H        H      0.822766666667     0.456000000000     0.037550000000     0.06       
C        C      0.783633333333     0.019300000000     0.035200000000    -0.048      
H        H      0.778800000000     0.031550000000     0.001500000000     0.13       
C        C      0.762966666667     0.046700000000     0.064350000000     0.012      
H        H      0.743600000000     0.076300000000     0.050250000000     0.123      
C        C      0.771833333333     0.029100000000     0.114250000000    -0.052      
H        H      0.758200000000     0.046650000000     0.133850000000     0.09       
C        C      0.861966666667     0.298300000000     0.225300000000    -0.437      
C        C      0.893100000000     0.271850000000     0.238850000000     0.032      
C        C      0.930633333333     0.240650000000     0.251600000000    -0.055      
C        C      0.944933333333     0.218750000000     0.299400000000    -0.005      
H        H      0.930300000000     0.224100000000     0.324450000000     0.08       
C        C      0.980733333333     0.188950000000     0.310150000000    -0.058      
H        H      0.990200000000     0.174300000000     0.342400000000     0.155      
C        C      0.669133333333     0.180850000000     0.273450000000     0.019      
H        H      0.693400000000     0.161150000000     0.281200000000     0.056      
C        C      0.989266666667     0.201200000000     0.225500000000    -0.064      
H        H      0.670866666667     0.194650000000     0.201100000000     0.127      
C        C      0.952933333333     0.231950000000     0.213850000000    -0.001      
H        H      0.943600000000     0.246500000000     0.181500000000     0.069      
C        C      0.728666666667     0.391800000000     0.228750000000     0.085      
H        H      0.733766666667     0.372350000000     0.261700000000     0.038      
C        C      0.734833333333     0.423500000000     0.152200000000     0.042      
H        H      0.744966666667     0.429950000000     0.122050000000     0.072      
C        C      0.700300000000     0.446850000000     0.160550000000     0.006      
H        H      0.682633333333     0.472250000000     0.137400000000     0.139      
C        C      0.997033333333     0.438200000000     0.236550000000    -0.068      
H        H      0.976966666667     0.431950000000     0.222300000000     0.091      
H        H      0.668566666667     0.414750000000     0.270050000000     0.118      
C        C      0.985733333333     0.494050000000     0.236550000000    -0.104      
H        H      0.981766666667     0.017550000000     0.203050000000     0.141      
H        H      0.962833333333     0.000500000000     0.251900000000     0.094      
C        C      0.821866666667     0.411300000000     0.415450000000     0.049      
H        H      0.807700000000     0.445700000000     0.408100000000     0.082      
C        C      0.834600000000     0.377450000000     0.461450000000     0.041      
H        H      0.830300000000     0.383850000000     0.490850000000     0.074      
C        C      0.853066666667     0.339150000000     0.407500000000     0.128      
H        H      0.864300000000     0.313800000000     0.393750000000     0.022      
C        C      0.871833333333     0.283400000000     0.493800000000    -0.091      
H        H      0.889866666667     0.260950000000     0.480200000000     0.171      
H        H      0.884333333333     0.290550000000     0.018150000000     0.121      
C        C      0.844666666667     0.255300000000     0.018250000000    -0.084      
H        H      0.857600000000     0.222400000000     0.042400000000     0.126      
H        H      0.828333333333     0.276000000000     0.035150000000     0.101      
C        C      0.921500000000     0.361250000000     0.324500000000     0.103      
C        C      0.946133333333     0.331600000000     0.371400000000     0.828      
C        C      0.912333333333     0.449000000000     0.160550000000     0.125      
C        C      0.932500000000     0.463850000000     0.112850000000     0.826      
C        C      0.890566666667     0.191100000000     0.143400000000     0.129      
C        C      0.919400000000     0.148300000000     0.130600000000     0.818      
C        C      0.785333333333     0.322200000000     0.093750000000     0.076      
C        C      0.751800000000     0.348600000000     0.057100000000     0.978      
N        N      0.752000000000     0.389450000000     0.194900000000    -0.19       
N        N      0.696333333333     0.426200000000     0.209250000000    -0.091      
N        N      0.833133333333     0.386850000000     0.382500000000    -0.173      
N        N      0.854866666667     0.332400000000     0.455000000000    -0.091      
O        O      0.904000000000     0.336800000000     0.310750000000    -0.275      
O        O      0.922233333333     0.407400000000     0.305400000000    -0.247      
O        O      0.907800000000     0.404250000000     0.172200000000    -0.249      
O        O      0.903266666667     0.482300000000     0.180900000000    -0.244      
O        O      0.871233333333     0.175900000000     0.177800000000    -0.321      
O        O      0.890933333333     0.235900000000     0.120500000000    -0.227      
O        O      0.786633333333     0.278450000000     0.121850000000    -0.241      
O        O      0.806433333333     0.348650000000     0.090600000000    -0.246      
F        F      0.953433333333     0.280500000000     0.383250000000    -0.435      
F        F      0.977733333333     0.342400000000     0.369050000000    -0.416      
F        F      0.930733333333     0.343200000000     0.409000000000    -0.462      
F        F      0.945966666667     0.003100000000     0.108900000000    -0.413      
F        F      0.909466666667     0.478450000000     0.074200000000    -0.462      
F        F      0.960500000000     0.424850000000     0.110600000000    -0.444      
F        F      0.914866666667     0.150500000000     0.085500000000    -0.316      
F        F      0.917800000000     0.099650000000     0.156500000000    -0.471      
F        F      0.952766666667     0.146450000000     0.144300000000    -0.416      
F        F      0.721500000000     0.353150000000     0.077650000000    -0.459      
F        F      0.747900000000     0.398100000000     0.033750000000    -0.421      
F        F      0.759366666667     0.339500000000     0.018150000000    -0.319      
Ag       Ag     0.874190000000     0.471535000000     0.254230000000     0.476      
Ag       Ag     0.822593333333     0.415415000000     0.305850000000     0.502      
Ag       Ag     0.870236666667     0.376590000000     0.235670000000     0.481      
Ag       Ag     0.807520000000     0.343965000000     0.209615000000     0.454      
Ag       Ag     0.858773333333     0.308875000000     0.141785000000     0.508      
Ag       Ag     0.820473333333     0.234380000000     0.194080000000     0.472      
F        F      0.928666666667     0.167000000000     0.081500000000    -0.141      
F        F      0.746233333333     0.322000000000     0.030500000000    -0.232      
C        C      0.848900000000     0.051600000000     0.768800000000    -0.392      
C        C      0.856533333333     0.033700000000     0.812800000000     0.013      
C        C      0.865600000000     0.014800000000     0.865200000000    -0.018      
C        C      0.846633333333     0.041900000000     0.893850000000    -0.055      
H        H      0.827400000000     0.071750000000     0.880100000000     0.029      
C        C      0.856266666667     0.024650000000     0.943450000000     0.02       
H        H      0.843900000000     0.044000000000     0.962450000000     0.06       
C        C      0.883033333333     0.480700000000     0.964800000000    -0.048      
H        H      0.887866666667     0.468450000000     0.998500000000     0.13       
C        C      0.903700000000     0.453300000000     0.935650000000     0.012      
H        H      0.923066666667     0.423700000000     0.949750000000     0.123      
C        C      0.894833333333     0.470900000000     0.885750000000    -0.052      
H        H      0.908466666667     0.453350000000     0.866150000000     0.09       
C        C      0.804700000000     0.201700000000     0.774700000000    -0.437      
C        C      0.773566666667     0.228150000000     0.761150000000     0.032      
C        C      0.736033333333     0.259350000000     0.748400000000    -0.055      
C        C      0.721733333333     0.281250000000     0.700600000000    -0.005      
H        H      0.736366666667     0.275900000000     0.675550000000     0.08       
C        C      0.685933333333     0.311050000000     0.689850000000    -0.058      
H        H      0.676466666667     0.325700000000     0.657600000000     0.155      
C        C      0.997533333333     0.319150000000     0.726550000000     0.019      
H        H      0.973266666667     0.338850000000     0.718800000000     0.056      
C        C      0.677400000000     0.298800000000     0.774500000000    -0.064      
H        H      0.995800000000     0.305350000000     0.798900000000     0.127      
C        C      0.713733333333     0.268050000000     0.786150000000    -0.001      
H        H      0.723066666667     0.253500000000     0.818500000000     0.069      
C        C      0.938000000000     0.108200000000     0.771250000000     0.085      
H        H      0.932900000000     0.127650000000     0.738300000000     0.038      
C        C      0.931833333333     0.076500000000     0.847800000000     0.042      
H        H      0.921700000000     0.070050000000     0.877950000000     0.072      
C        C      0.966366666667     0.053150000000     0.839450000000     0.006      
H        H      0.984033333333     0.027750000000     0.862600000000     0.139      
C        C      0.669633333333     0.061800000000     0.763450000000    -0.068      
H        H      0.689700000000     0.068050000000     0.777700000000     0.091      
H        H      0.998100000000     0.085250000000     0.729950000000     0.118      
C        C      0.680933333333     0.005950000000     0.763450000000    -0.104      
H        H      0.684900000000     0.482450000000     0.796950000000     0.141      
H        H      0.703833333333     0.499500000000     0.748100000000     0.094      
C        C      0.844800000000     0.088700000000     0.584550000000     0.049      
H        H      0.858966666667     0.054300000000     0.591900000000     0.082      
C        C      0.832066666667     0.122550000000     0.538550000000     0.041      
H        H      0.836366666667     0.116150000000     0.509150000000     0.074      
C        C      0.813600000000     0.160850000000     0.592500000000     0.128      
H        H      0.802366666667     0.186200000000     0.606250000000     0.022      
C        C      0.794833333333     0.216600000000     0.506200000000    -0.091      
H        H      0.776800000000     0.239050000000     0.519800000000     0.171      
H        H      0.782333333333     0.209450000000     0.981850000000     0.121      
C        C      0.822000000000     0.244700000000     0.981750000000    -0.084      
H        H      0.809066666667     0.277600000000     0.957600000000     0.126      
H        H      0.838333333333     0.224000000000     0.964850000000     0.101      
C        C      0.745166666667     0.138750000000     0.675500000000     0.103      
C        C      0.720533333333     0.168400000000     0.628600000000     0.828      
C        C      0.754333333333     0.051000000000     0.839450000000     0.125      
C        C      0.734166666667     0.036150000000     0.887150000000     0.826      
C        C      0.776100000000     0.308900000000     0.856600000000     0.129      
C        C      0.747266666667     0.351700000000     0.869400000000     0.818      
C        C      0.881333333333     0.177800000000     0.906250000000     0.076      
C        C      0.914866666667     0.151400000000     0.942900000000     0.978      
N        N      0.914666666667     0.110550000000     0.805100000000    -0.19       
N        N      0.970333333333     0.073800000000     0.790750000000    -0.091      
N        N      0.833533333333     0.113150000000     0.617500000000    -0.173      
N        N      0.811800000000     0.167600000000     0.545000000000    -0.091      
O        O      0.762666666667     0.163200000000     0.689250000000    -0.275      
O        O      0.744433333333     0.092600000000     0.694600000000    -0.247      
O        O      0.758866666667     0.095750000000     0.827800000000    -0.249      
O        O      0.763400000000     0.017700000000     0.819100000000    -0.244      
O        O      0.795433333333     0.324100000000     0.822200000000    -0.321      
O        O      0.775733333333     0.264100000000     0.879500000000    -0.227      
O        O      0.880033333333     0.221550000000     0.878150000000    -0.241      
O        O      0.860233333333     0.151350000000     0.909400000000    -0.246      
F        F      0.713233333333     0.219500000000     0.616750000000    -0.435      
F        F      0.688933333333     0.157600000000     0.630950000000    -0.416      
F        F      0.735933333333     0.156800000000     0.591000000000    -0.462      
F        F      0.720700000000     0.496900000000     0.891100000000    -0.413      
F        F      0.757200000000     0.021550000000     0.925800000000    -0.462      
F        F      0.706166666667     0.075150000000     0.889400000000    -0.444      
F        F      0.751800000000     0.349500000000     0.914500000000    -0.316      
F        F      0.748866666667     0.400350000000     0.843500000000    -0.471      
F        F      0.713900000000     0.353550000000     0.855700000000    -0.416      
F        F      0.945166666667     0.146850000000     0.922350000000    -0.459      
F        F      0.918766666667     0.101900000000     0.966250000000    -0.421      
F        F      0.907300000000     0.160500000000     0.981850000000    -0.319      
Ag       Ag     0.792476666667     0.028465000000     0.745770000000     0.476      
Ag       Ag     0.844073333333     0.084585000000     0.694150000000     0.502      
Ag       Ag     0.796430000000     0.123410000000     0.764330000000     0.481      
Ag       Ag     0.859146666667     0.156035000000     0.790385000000     0.454      
Ag       Ag     0.807893333333     0.191125000000     0.858215000000     0.508      
Ag       Ag     0.846193333333     0.265620000000     0.805920000000     0.472      
F        F      0.738000000000     0.333000000000     0.918500000000    -0.141      
F        F      0.920433333333     0.178000000000     0.969500000000    -0.232      
C        C      0.817766666667     0.448400000000     0.731200000000    -0.391      
C        C      0.810133333333     0.466300000000     0.687200000000     0.014      
C        C      0.801066666667     0.485200000000     0.634800000000    -0.017      
C        C      0.820033333333     0.458100000000     0.606150000000    -0.054      
H        H      0.839266666667     0.428250000000     0.619900000000     0.029      
C        C      0.810400000000     0.475350000000     0.556550000000     0.02       
H        H      0.822766666667     0.456000000000     0.537550000000     0.06       
C        C      0.783633333333     0.019300000000     0.535200000000    -0.048      
H        H      0.778800000000     0.031550000000     0.501500000000     0.13       
C        C      0.762966666667     0.046700000000     0.564350000000     0.012      
H        H      0.743600000000     0.076300000000     0.550250000000     0.123      
C        C      0.771833333333     0.029100000000     0.614250000000    -0.052      
H        H      0.758200000000     0.046650000000     0.633850000000     0.09       
C        C      0.861966666667     0.298300000000     0.725300000000    -0.437      
C        C      0.893100000000     0.271850000000     0.738850000000     0.032      
C        C      0.930633333333     0.240650000000     0.751600000000    -0.055      
C        C      0.944933333333     0.218750000000     0.799400000000    -0.005      
H        H      0.930300000000     0.224100000000     0.824450000000     0.08       
C        C      0.980733333333     0.188950000000     0.810150000000    -0.058      
H        H      0.990200000000     0.174300000000     0.842400000000     0.155      
C        C      0.669133333333     0.180850000000     0.773450000000     0.019      
H        H      0.693400000000     0.161150000000     0.781200000000     0.056      
C        C      0.989266666667     0.201200000000     0.725500000000    -0.064      
H        H      0.670866666667     0.194650000000     0.701100000000     0.127      
C        C      0.952933333333     0.231950000000     0.713850000000    -0.001      
H        H      0.943600000000     0.246500000000     0.681500000000     0.069      
C        C      0.728666666667     0.391800000000     0.728750000000     0.085      
H        H      0.733766666667     0.372350000000     0.761700000000     0.038      
C        C      0.734833333333     0.423500000000     0.652200000000     0.042      
H        H      0.744966666667     0.429950000000     0.622050000000     0.072      
C        C      0.700300000000     0.446850000000     0.660550000000     0.006      
H        H      0.682633333333     0.472250000000     0.637400000000     0.139      
C        C      0.997033333333     0.438200000000     0.736550000000    -0.068      
H        H      0.976966666667     0.431950000000     0.722300000000     0.091      
H        H      0.668566666667     0.414750000000     0.770050000000     0.118      
C        C      0.985733333333     0.494050000000     0.736550000000    -0.104      
H        H      0.981766666667     0.017550000000     0.703050000000     0.141      
H        H      0.962833333333     0.000500000000     0.751900000000     0.094      
C        C      0.821866666667     0.411300000000     0.915450000000     0.049      
H        H      0.807700000000     0.445700000000     0.908100000000     0.082      
C        C      0.834600000000     0.377450000000     0.961450000000     0.041      
H        H      0.830300000000     0.383850000000     0.990850000000     0.074      
C        C      0.853066666667     0.339150000000     0.907500000000     0.128      
H        H      0.864300000000     0.313800000000     0.893750000000     0.022      
C        C      0.871833333333     0.283400000000     0.993800000000    -0.091      
H        H      0.889866666667     0.260950000000     0.980200000000     0.171      
H        H      0.884333333333     0.290550000000     0.518150000000     0.121      
C        C      0.844666666667     0.255300000000     0.518250000000    -0.084      
H        H      0.857600000000     0.222400000000     0.542400000000     0.126      
H        H      0.828333333333     0.276000000000     0.535150000000     0.101      
C        C      0.921500000000     0.361250000000     0.824500000000     0.103      
C        C      0.946133333333     0.331600000000     0.871400000000     0.828      
C        C      0.912333333333     0.449000000000     0.660550000000     0.125      
C        C      0.932500000000     0.463850000000     0.612850000000     0.826      
C        C      0.890566666667     0.191100000000     0.643400000000     0.129      
C        C      0.919400000000     0.148300000000     0.630600000000     0.818      
C        C      0.785333333333     0.322200000000     0.593750000000     0.076      
C        C      0.751800000000     0.348600000000     0.557100000000     0.978      
N        N      0.752000000000     0.389450000000     0.694900000000    -0.19       
N        N      0.696333333333     0.426200000000     0.709250000000    -0.091      
N        N      0.833133333333     0.386850000000     0.882500000000    -0.173      
N        N      0.854866666667     0.332400000000     0.955000000000    -0.091      
O        O      0.904000000000     0.336800000000     0.810750000000    -0.275      
O        O      0.922233333333     0.407400000000     0.805400000000    -0.247      
O        O      0.907800000000     0.404250000000     0.672200000000    -0.249      
O        O      0.903266666667     0.482300000000     0.680900000000    -0.244      
O        O      0.871233333333     0.175900000000     0.677800000000    -0.321      
O        O      0.890933333333     0.235900000000     0.620500000000    -0.227      
O        O      0.786633333333     0.278450000000     0.621850000000    -0.241      
O        O      0.806433333333     0.348650000000     0.590600000000    -0.246      
F        F      0.953433333333     0.280500000000     0.883250000000    -0.435      
F        F      0.977733333333     0.342400000000     0.869050000000    -0.416      
F        F      0.930733333333     0.343200000000     0.909000000000    -0.462      
F        F      0.945966666667     0.003100000000     0.608900000000    -0.413      
F        F      0.909466666667     0.478450000000     0.574200000000    -0.462      
F        F      0.960500000000     0.424850000000     0.610600000000    -0.444      
F        F      0.914866666667     0.150500000000     0.585500000000    -0.316      
F        F      0.917800000000     0.099650000000     0.656500000000    -0.471      
F        F      0.952766666667     0.146450000000     0.644300000000    -0.416      
F        F      0.721500000000     0.353150000000     0.577650000000    -0.459      
F        F      0.747900000000     0.398100000000     0.533750000000    -0.421      
F        F      0.759366666667     0.339500000000     0.518150000000    -0.319      
Ag       Ag     0.874190000000     0.471535000000     0.754230000000     0.476      
Ag       Ag     0.822593333333     0.415415000000     0.805850000000     0.502      
Ag       Ag     0.870236666667     0.376590000000     0.735670000000     0.481      
Ag       Ag     0.807520000000     0.343965000000     0.709615000000     0.454      
Ag       Ag     0.858773333333     0.308875000000     0.641785000000     0.508      
Ag       Ag     0.820473333333     0.234380000000     0.694080000000     0.472      
F        F      0.928666666667     0.167000000000     0.581500000000    -0.141      
F        F      0.746233333333     0.322000000000     0.530500000000    -0.232      
C        C      0.848900000000     0.551600000000     0.268800000000    -0.392      
C        C      0.856533333333     0.533700000000     0.312800000000     0.013      
C        C      0.865600000000     0.514800000000     0.365200000000    -0.018      
C        C      0.846633333333     0.541900000000     0.393850000000    -0.055      
H        H      0.827400000000     0.571750000000     0.380100000000     0.029      
C        C      0.856266666667     0.524650000000     0.443450000000     0.02       
H        H      0.843900000000     0.544000000000     0.462450000000     0.06       
C        C      0.883033333333     0.980700000000     0.464800000000    -0.048      
H        H      0.887866666667     0.968450000000     0.498500000000     0.13       
C        C      0.903700000000     0.953300000000     0.435650000000     0.012      
H        H      0.923066666667     0.923700000000     0.449750000000     0.123      
C        C      0.894833333333     0.970900000000     0.385750000000    -0.052      
H        H      0.908466666667     0.953350000000     0.366150000000     0.09       
C        C      0.804700000000     0.701700000000     0.274700000000    -0.437      
C        C      0.773566666667     0.728150000000     0.261150000000     0.032      
C        C      0.736033333333     0.759350000000     0.248400000000    -0.055      
C        C      0.721733333333     0.781250000000     0.200600000000    -0.005      
H        H      0.736366666667     0.775900000000     0.175550000000     0.08       
C        C      0.685933333333     0.811050000000     0.189850000000    -0.058      
H        H      0.676466666667     0.825700000000     0.157600000000     0.155      
C        C      0.997533333333     0.819150000000     0.226550000000     0.019      
H        H      0.973266666667     0.838850000000     0.218800000000     0.056      
C        C      0.677400000000     0.798800000000     0.274500000000    -0.064      
H        H      0.995800000000     0.805350000000     0.298900000000     0.127      
C        C      0.713733333333     0.768050000000     0.286150000000    -0.001      
H        H      0.723066666667     0.753500000000     0.318500000000     0.069      
C        C      0.938000000000     0.608200000000     0.271250000000     0.085      
H        H      0.932900000000     0.627650000000     0.238300000000     0.038      
C        C      0.931833333333     0.576500000000     0.347800000000     0.042      
H        H      0.921700000000     0.570050000000     0.377950000000     0.072      
C        C      0.966366666667     0.553150000000     0.339450000000     0.006      
H        H      0.984033333333     0.527750000000     0.362600000000     0.139      
C        C      0.669633333333     0.561800000000     0.263450000000    -0.068      
H        H      0.689700000000     0.568050000000     0.277700000000     0.091      
H        H      0.998100000000     0.585250000000     0.229950000000     0.118      
C        C      0.680933333333     0.505950000000     0.263450000000    -0.104      
H        H      0.684900000000     0.982450000000     0.296950000000     0.141      
H        H      0.703833333333     0.999500000000     0.248100000000     0.094      
C        C      0.844800000000     0.588700000000     0.084550000000     0.049      
H        H      0.858966666667     0.554300000000     0.091900000000     0.082      
C        C      0.832066666667     0.622550000000     0.038550000000     0.041      
H        H      0.836366666667     0.616150000000     0.009150000000     0.074      
C        C      0.813600000000     0.660850000000     0.092500000000     0.128      
H        H      0.802366666667     0.686200000000     0.106250000000     0.022      
C        C      0.794833333333     0.716600000000     0.006200000000    -0.091      
H        H      0.776800000000     0.739050000000     0.019800000000     0.171      
H        H      0.782333333333     0.709450000000     0.481850000000     0.121      
C        C      0.822000000000     0.744700000000     0.481750000000    -0.084      
H        H      0.809066666667     0.777600000000     0.457600000000     0.126      
H        H      0.838333333333     0.724000000000     0.464850000000     0.101      
C        C      0.745166666667     0.638750000000     0.175500000000     0.103      
C        C      0.720533333333     0.668400000000     0.128600000000     0.828      
C        C      0.754333333333     0.551000000000     0.339450000000     0.125      
C        C      0.734166666667     0.536150000000     0.387150000000     0.826      
C        C      0.776100000000     0.808900000000     0.356600000000     0.129      
C        C      0.747266666667     0.851700000000     0.369400000000     0.818      
C        C      0.881333333333     0.677800000000     0.406250000000     0.076      
C        C      0.914866666667     0.651400000000     0.442900000000     0.978      
N        N      0.914666666667     0.610550000000     0.305100000000    -0.19       
N        N      0.970333333333     0.573800000000     0.290750000000    -0.091      
N        N      0.833533333333     0.613150000000     0.117500000000    -0.173      
N        N      0.811800000000     0.667600000000     0.045000000000    -0.091      
O        O      0.762666666667     0.663200000000     0.189250000000    -0.275      
O        O      0.744433333333     0.592600000000     0.194600000000    -0.247      
O        O      0.758866666667     0.595750000000     0.327800000000    -0.249      
O        O      0.763400000000     0.517700000000     0.319100000000    -0.244      
O        O      0.795433333333     0.824100000000     0.322200000000    -0.321      
O        O      0.775733333333     0.764100000000     0.379500000000    -0.227      
O        O      0.880033333333     0.721550000000     0.378150000000    -0.241      
O        O      0.860233333333     0.651350000000     0.409400000000    -0.246      
F        F      0.713233333333     0.719500000000     0.116750000000    -0.435      
F        F      0.688933333333     0.657600000000     0.130950000000    -0.416      
F        F      0.735933333333     0.656800000000     0.091000000000    -0.462      
F        F      0.720700000000     0.996900000000     0.391100000000    -0.413      
F        F      0.757200000000     0.521550000000     0.425800000000    -0.462      
F        F      0.706166666667     0.575150000000     0.389400000000    -0.444      
F        F      0.751800000000     0.849500000000     0.414500000000    -0.316      
F        F      0.748866666667     0.900350000000     0.343500000000    -0.471      
F        F      0.713900000000     0.853550000000     0.355700000000    -0.416      
F        F      0.945166666667     0.646850000000     0.422350000000    -0.459      
F        F      0.918766666667     0.601900000000     0.466250000000    -0.421      
F        F      0.907300000000     0.660500000000     0.481850000000    -0.319      
Ag       Ag     0.792476666667     0.528465000000     0.245770000000     0.476      
Ag       Ag     0.844073333333     0.584585000000     0.194150000000     0.502      
Ag       Ag     0.796430000000     0.623410000000     0.264330000000     0.481      
Ag       Ag     0.859146666667     0.656035000000     0.290385000000     0.454      
Ag       Ag     0.807893333333     0.691125000000     0.358215000000     0.508      
Ag       Ag     0.846193333333     0.765620000000     0.305920000000     0.472      
F        F      0.738000000000     0.833000000000     0.418500000000    -0.141      
F        F      0.920433333333     0.678000000000     0.469500000000    -0.232      
C        C      0.817766666667     0.948400000000     0.231200000000    -0.391      
C        C      0.810133333333     0.966300000000     0.187200000000     0.014      
C        C      0.801066666667     0.985200000000     0.134800000000    -0.017      
C        C      0.820033333333     0.958100000000     0.106150000000    -0.054      
H        H      0.839266666667     0.928250000000     0.119900000000     0.029      
C        C      0.810400000000     0.975350000000     0.056550000000     0.02       
H        H      0.822766666667     0.956000000000     0.037550000000     0.06       
C        C      0.783633333333     0.519300000000     0.035200000000    -0.048      
H        H      0.778800000000     0.531550000000     0.001500000000     0.13       
C        C      0.762966666667     0.546700000000     0.064350000000     0.012      
H        H      0.743600000000     0.576300000000     0.050250000000     0.123      
C        C      0.771833333333     0.529100000000     0.114250000000    -0.052      
H        H      0.758200000000     0.546650000000     0.133850000000     0.09       
C        C      0.861966666667     0.798300000000     0.225300000000    -0.437      
C        C      0.893100000000     0.771850000000     0.238850000000     0.032      
C        C      0.930633333333     0.740650000000     0.251600000000    -0.055      
C        C      0.944933333333     0.718750000000     0.299400000000    -0.005      
H        H      0.930300000000     0.724100000000     0.324450000000     0.08       
C        C      0.980733333333     0.688950000000     0.310150000000    -0.058      
H        H      0.990200000000     0.674300000000     0.342400000000     0.155      
C        C      0.669133333333     0.680850000000     0.273450000000     0.019      
H        H      0.693400000000     0.661150000000     0.281200000000     0.056      
C        C      0.989266666667     0.701200000000     0.225500000000    -0.064      
H        H      0.670866666667     0.694650000000     0.201100000000     0.127      
C        C      0.952933333333     0.731950000000     0.213850000000    -0.001      
H        H      0.943600000000     0.746500000000     0.181500000000     0.069      
C        C      0.728666666667     0.891800000000     0.228750000000     0.085      
H        H      0.733766666667     0.872350000000     0.261700000000     0.038      
C        C      0.734833333333     0.923500000000     0.152200000000     0.042      
H        H      0.744966666667     0.929950000000     0.122050000000     0.072      
C        C      0.700300000000     0.946850000000     0.160550000000     0.006      
H        H      0.682633333333     0.972250000000     0.137400000000     0.139      
C        C      0.997033333333     0.938200000000     0.236550000000    -0.068      
H        H      0.976966666667     0.931950000000     0.222300000000     0.091      
H        H      0.668566666667     0.914750000000     0.270050000000     0.118      
C        C      0.985733333333     0.994050000000     0.236550000000    -0.104      
H        H      0.981766666667     0.517550000000     0.203050000000     0.141      
H        H      0.962833333333     0.500500000000     0.251900000000     0.094      
C        C      0.821866666667     0.911300000000     0.415450000000     0.049      
H        H      0.807700000000     0.945700000000     0.408100000000     0.082      
C        C      0.834600000000     0.877450000000     0.461450000000     0.041      
H        H      0.830300000000     0.883850000000     0.490850000000     0.074      
C        C      0.853066666667     0.839150000000     0.407500000000     0.128      
H        H      0.864300000000     0.813800000000     0.393750000000     0.022      
C        C      0.871833333333     0.783400000000     0.493800000000    -0.091      
H        H      0.889866666667     0.760950000000     0.480200000000     0.171      
H        H      0.884333333333     0.790550000000     0.018150000000     0.121      
C        C      0.844666666667     0.755300000000     0.018250000000    -0.084      
H        H      0.857600000000     0.722400000000     0.042400000000     0.126      
H        H      0.828333333333     0.776000000000     0.035150000000     0.101      
C        C      0.921500000000     0.861250000000     0.324500000000     0.103      
C        C      0.946133333333     0.831600000000     0.371400000000     0.828      
C        C      0.912333333333     0.949000000000     0.160550000000     0.125      
C        C      0.932500000000     0.963850000000     0.112850000000     0.826      
C        C      0.890566666667     0.691100000000     0.143400000000     0.129      
C        C      0.919400000000     0.648300000000     0.130600000000     0.818      
C        C      0.785333333333     0.822200000000     0.093750000000     0.076      
C        C      0.751800000000     0.848600000000     0.057100000000     0.978      
N        N      0.752000000000     0.889450000000     0.194900000000    -0.19       
N        N      0.696333333333     0.926200000000     0.209250000000    -0.091      
N        N      0.833133333333     0.886850000000     0.382500000000    -0.173      
N        N      0.854866666667     0.832400000000     0.455000000000    -0.091      
O        O      0.904000000000     0.836800000000     0.310750000000    -0.275      
O        O      0.922233333333     0.907400000000     0.305400000000    -0.247      
O        O      0.907800000000     0.904250000000     0.172200000000    -0.249      
O        O      0.903266666667     0.982300000000     0.180900000000    -0.244      
O        O      0.871233333333     0.675900000000     0.177800000000    -0.321      
O        O      0.890933333333     0.735900000000     0.120500000000    -0.227      
O        O      0.786633333333     0.778450000000     0.121850000000    -0.241      
O        O      0.806433333333     0.848650000000     0.090600000000    -0.246      
F        F      0.953433333333     0.780500000000     0.383250000000    -0.435      
F        F      0.977733333333     0.842400000000     0.369050000000    -0.416      
F        F      0.930733333333     0.843200000000     0.409000000000    -0.462      
F        F      0.945966666667     0.503100000000     0.108900000000    -0.413      
F        F      0.909466666667     0.978450000000     0.074200000000    -0.462      
F        F      0.960500000000     0.924850000000     0.110600000000    -0.444      
F        F      0.914866666667     0.650500000000     0.085500000000    -0.316      
F        F      0.917800000000     0.599650000000     0.156500000000    -0.471      
F        F      0.952766666667     0.646450000000     0.144300000000    -0.416      
F        F      0.721500000000     0.853150000000     0.077650000000    -0.459      
F        F      0.747900000000     0.898100000000     0.033750000000    -0.421      
F        F      0.759366666667     0.839500000000     0.018150000000    -0.319      
Ag       Ag     0.874190000000     0.971535000000     0.254230000000     0.476      
Ag       Ag     0.822593333333     0.915415000000     0.305850000000     0.502      
Ag       Ag     0.870236666667     0.876590000000     0.235670000000     0.481      
Ag       Ag     0.807520000000     0.843965000000     0.209615000000     0.454      
Ag       Ag     0.858773333333     0.808875000000     0.141785000000     0.508      
Ag       Ag     0.820473333333     0.734380000000     0.194080000000     0.472      
F        F      0.928666666667     0.667000000000     0.081500000000    -0.141      
F        F      0.746233333333     0.822000000000     0.030500000000    -0.232      
C        C      0.848900000000     0.551600000000     0.768800000000    -0.392      
C        C      0.856533333333     0.533700000000     0.812800000000     0.013      
C        C      0.865600000000     0.514800000000     0.865200000000    -0.018      
C        C      0.846633333333     0.541900000000     0.893850000000    -0.055      
H        H      0.827400000000     0.571750000000     0.880100000000     0.029      
C        C      0.856266666667     0.524650000000     0.943450000000     0.02       
H        H      0.843900000000     0.544000000000     0.962450000000     0.06       
C        C      0.883033333333     0.980700000000     0.964800000000    -0.048      
H        H      0.887866666667     0.968450000000     0.998500000000     0.13       
C        C      0.903700000000     0.953300000000     0.935650000000     0.012      
H        H      0.923066666667     0.923700000000     0.949750000000     0.123      
C        C      0.894833333333     0.970900000000     0.885750000000    -0.052      
H        H      0.908466666667     0.953350000000     0.866150000000     0.09       
C        C      0.804700000000     0.701700000000     0.774700000000    -0.437      
C        C      0.773566666667     0.728150000000     0.761150000000     0.032      
C        C      0.736033333333     0.759350000000     0.748400000000    -0.055      
C        C      0.721733333333     0.781250000000     0.700600000000    -0.005      
H        H      0.736366666667     0.775900000000     0.675550000000     0.08       
C        C      0.685933333333     0.811050000000     0.689850000000    -0.058      
H        H      0.676466666667     0.825700000000     0.657600000000     0.155      
C        C      0.997533333333     0.819150000000     0.726550000000     0.019      
H        H      0.973266666667     0.838850000000     0.718800000000     0.056      
C        C      0.677400000000     0.798800000000     0.774500000000    -0.064      
H        H      0.995800000000     0.805350000000     0.798900000000     0.127      
C        C      0.713733333333     0.768050000000     0.786150000000    -0.001      
H        H      0.723066666667     0.753500000000     0.818500000000     0.069      
C        C      0.938000000000     0.608200000000     0.771250000000     0.085      
H        H      0.932900000000     0.627650000000     0.738300000000     0.038      
C        C      0.931833333333     0.576500000000     0.847800000000     0.042      
H        H      0.921700000000     0.570050000000     0.877950000000     0.072      
C        C      0.966366666667     0.553150000000     0.839450000000     0.006      
H        H      0.984033333333     0.527750000000     0.862600000000     0.139      
C        C      0.669633333333     0.561800000000     0.763450000000    -0.068      
H        H      0.689700000000     0.568050000000     0.777700000000     0.091      
H        H      0.998100000000     0.585250000000     0.729950000000     0.118      
C        C      0.680933333333     0.505950000000     0.763450000000    -0.104      
H        H      0.684900000000     0.982450000000     0.796950000000     0.141      
H        H      0.703833333333     0.999500000000     0.748100000000     0.094      
C        C      0.844800000000     0.588700000000     0.584550000000     0.049      
H        H      0.858966666667     0.554300000000     0.591900000000     0.082      
C        C      0.832066666667     0.622550000000     0.538550000000     0.041      
H        H      0.836366666667     0.616150000000     0.509150000000     0.074      
C        C      0.813600000000     0.660850000000     0.592500000000     0.128      
H        H      0.802366666667     0.686200000000     0.606250000000     0.022      
C        C      0.794833333333     0.716600000000     0.506200000000    -0.091      
H        H      0.776800000000     0.739050000000     0.519800000000     0.171      
H        H      0.782333333333     0.709450000000     0.981850000000     0.121      
C        C      0.822000000000     0.744700000000     0.981750000000    -0.084      
H        H      0.809066666667     0.777600000000     0.957600000000     0.126      
H        H      0.838333333333     0.724000000000     0.964850000000     0.101      
C        C      0.745166666667     0.638750000000     0.675500000000     0.103      
C        C      0.720533333333     0.668400000000     0.628600000000     0.828      
C        C      0.754333333333     0.551000000000     0.839450000000     0.125      
C        C      0.734166666667     0.536150000000     0.887150000000     0.826      
C        C      0.776100000000     0.808900000000     0.856600000000     0.129      
C        C      0.747266666667     0.851700000000     0.869400000000     0.818      
C        C      0.881333333333     0.677800000000     0.906250000000     0.076      
C        C      0.914866666667     0.651400000000     0.942900000000     0.978      
N        N      0.914666666667     0.610550000000     0.805100000000    -0.19       
N        N      0.970333333333     0.573800000000     0.790750000000    -0.091      
N        N      0.833533333333     0.613150000000     0.617500000000    -0.173      
N        N      0.811800000000     0.667600000000     0.545000000000    -0.091      
O        O      0.762666666667     0.663200000000     0.689250000000    -0.275      
O        O      0.744433333333     0.592600000000     0.694600000000    -0.247      
O        O      0.758866666667     0.595750000000     0.827800000000    -0.249      
O        O      0.763400000000     0.517700000000     0.819100000000    -0.244      
O        O      0.795433333333     0.824100000000     0.822200000000    -0.321      
O        O      0.775733333333     0.764100000000     0.879500000000    -0.227      
O        O      0.880033333333     0.721550000000     0.878150000000    -0.241      
O        O      0.860233333333     0.651350000000     0.909400000000    -0.246      
F        F      0.713233333333     0.719500000000     0.616750000000    -0.435      
F        F      0.688933333333     0.657600000000     0.630950000000    -0.416      
F        F      0.735933333333     0.656800000000     0.591000000000    -0.462      
F        F      0.720700000000     0.996900000000     0.891100000000    -0.413      
F        F      0.757200000000     0.521550000000     0.925800000000    -0.462      
F        F      0.706166666667     0.575150000000     0.889400000000    -0.444      
F        F      0.751800000000     0.849500000000     0.914500000000    -0.316      
F        F      0.748866666667     0.900350000000     0.843500000000    -0.471      
F        F      0.713900000000     0.853550000000     0.855700000000    -0.416      
F        F      0.945166666667     0.646850000000     0.922350000000    -0.459      
F        F      0.918766666667     0.601900000000     0.966250000000    -0.421      
F        F      0.907300000000     0.660500000000     0.981850000000    -0.319      
Ag       Ag     0.792476666667     0.528465000000     0.745770000000     0.476      
Ag       Ag     0.844073333333     0.584585000000     0.694150000000     0.502      
Ag       Ag     0.796430000000     0.623410000000     0.764330000000     0.481      
Ag       Ag     0.859146666667     0.656035000000     0.790385000000     0.454      
Ag       Ag     0.807893333333     0.691125000000     0.858215000000     0.508      
Ag       Ag     0.846193333333     0.765620000000     0.805920000000     0.472      
F        F      0.738000000000     0.833000000000     0.918500000000    -0.141      
F        F      0.920433333333     0.678000000000     0.969500000000    -0.232      
C        C      0.817766666667     0.948400000000     0.731200000000    -0.391      
C        C      0.810133333333     0.966300000000     0.687200000000     0.014      
C        C      0.801066666667     0.985200000000     0.634800000000    -0.017      
C        C      0.820033333333     0.958100000000     0.606150000000    -0.054      
H        H      0.839266666667     0.928250000000     0.619900000000     0.029      
C        C      0.810400000000     0.975350000000     0.556550000000     0.02       
H        H      0.822766666667     0.956000000000     0.537550000000     0.06       
C        C      0.783633333333     0.519300000000     0.535200000000    -0.048      
H        H      0.778800000000     0.531550000000     0.501500000000     0.13       
C        C      0.762966666667     0.546700000000     0.564350000000     0.012      
H        H      0.743600000000     0.576300000000     0.550250000000     0.123      
C        C      0.771833333333     0.529100000000     0.614250000000    -0.052      
H        H      0.758200000000     0.546650000000     0.633850000000     0.09       
C        C      0.861966666667     0.798300000000     0.725300000000    -0.437      
C        C      0.893100000000     0.771850000000     0.738850000000     0.032      
C        C      0.930633333333     0.740650000000     0.751600000000    -0.055      
C        C      0.944933333333     0.718750000000     0.799400000000    -0.005      
H        H      0.930300000000     0.724100000000     0.824450000000     0.08       
C        C      0.980733333333     0.688950000000     0.810150000000    -0.058      
H        H      0.990200000000     0.674300000000     0.842400000000     0.155      
C        C      0.669133333333     0.680850000000     0.773450000000     0.019      
H        H      0.693400000000     0.661150000000     0.781200000000     0.056      
C        C      0.989266666667     0.701200000000     0.725500000000    -0.064      
H        H      0.670866666667     0.694650000000     0.701100000000     0.127      
C        C      0.952933333333     0.731950000000     0.713850000000    -0.001      
H        H      0.943600000000     0.746500000000     0.681500000000     0.069      
C        C      0.728666666667     0.891800000000     0.728750000000     0.085      
H        H      0.733766666667     0.872350000000     0.761700000000     0.038      
C        C      0.734833333333     0.923500000000     0.652200000000     0.042      
H        H      0.744966666667     0.929950000000     0.622050000000     0.072      
C        C      0.700300000000     0.946850000000     0.660550000000     0.006      
H        H      0.682633333333     0.972250000000     0.637400000000     0.139      
C        C      0.997033333333     0.938200000000     0.736550000000    -0.068      
H        H      0.976966666667     0.931950000000     0.722300000000     0.091      
H        H      0.668566666667     0.914750000000     0.770050000000     0.118      
C        C      0.985733333333     0.994050000000     0.736550000000    -0.104      
H        H      0.981766666667     0.517550000000     0.703050000000     0.141      
H        H      0.962833333333     0.500500000000     0.751900000000     0.094      
C        C      0.821866666667     0.911300000000     0.915450000000     0.049      
H        H      0.807700000000     0.945700000000     0.908100000000     0.082      
C        C      0.834600000000     0.877450000000     0.961450000000     0.041      
H        H      0.830300000000     0.883850000000     0.990850000000     0.074      
C        C      0.853066666667     0.839150000000     0.907500000000     0.128      
H        H      0.864300000000     0.813800000000     0.893750000000     0.022      
C        C      0.871833333333     0.783400000000     0.993800000000    -0.091      
H        H      0.889866666667     0.760950000000     0.980200000000     0.171      
H        H      0.884333333333     0.790550000000     0.518150000000     0.121      
C        C      0.844666666667     0.755300000000     0.518250000000    -0.084      
H        H      0.857600000000     0.722400000000     0.542400000000     0.126      
H        H      0.828333333333     0.776000000000     0.535150000000     0.101      
C        C      0.921500000000     0.861250000000     0.824500000000     0.103      
C        C      0.946133333333     0.831600000000     0.871400000000     0.828      
C        C      0.912333333333     0.949000000000     0.660550000000     0.125      
C        C      0.932500000000     0.963850000000     0.612850000000     0.826      
C        C      0.890566666667     0.691100000000     0.643400000000     0.129      
C        C      0.919400000000     0.648300000000     0.630600000000     0.818      
C        C      0.785333333333     0.822200000000     0.593750000000     0.076      
C        C      0.751800000000     0.848600000000     0.557100000000     0.978      
N        N      0.752000000000     0.889450000000     0.694900000000    -0.19       
N        N      0.696333333333     0.926200000000     0.709250000000    -0.091      
N        N      0.833133333333     0.886850000000     0.882500000000    -0.173      
N        N      0.854866666667     0.832400000000     0.955000000000    -0.091      
O        O      0.904000000000     0.836800000000     0.810750000000    -0.275      
O        O      0.922233333333     0.907400000000     0.805400000000    -0.247      
O        O      0.907800000000     0.904250000000     0.672200000000    -0.249      
O        O      0.903266666667     0.982300000000     0.680900000000    -0.244      
O        O      0.871233333333     0.675900000000     0.677800000000    -0.321      
O        O      0.890933333333     0.735900000000     0.620500000000    -0.227      
O        O      0.786633333333     0.778450000000     0.621850000000    -0.241      
O        O      0.806433333333     0.848650000000     0.590600000000    -0.246      
F        F      0.953433333333     0.780500000000     0.883250000000    -0.435      
F        F      0.977733333333     0.842400000000     0.869050000000    -0.416      
F        F      0.930733333333     0.843200000000     0.909000000000    -0.462      
F        F      0.945966666667     0.503100000000     0.608900000000    -0.413      
F        F      0.909466666667     0.978450000000     0.574200000000    -0.462      
F        F      0.960500000000     0.924850000000     0.610600000000    -0.444      
F        F      0.914866666667     0.650500000000     0.585500000000    -0.316      
F        F      0.917800000000     0.599650000000     0.656500000000    -0.471      
F        F      0.952766666667     0.646450000000     0.644300000000    -0.416      
F        F      0.721500000000     0.853150000000     0.577650000000    -0.459      
F        F      0.747900000000     0.898100000000     0.533750000000    -0.421      
F        F      0.759366666667     0.839500000000     0.518150000000    -0.319      
Ag       Ag     0.874190000000     0.971535000000     0.754230000000     0.476      
Ag       Ag     0.822593333333     0.915415000000     0.805850000000     0.502      
Ag       Ag     0.870236666667     0.876590000000     0.735670000000     0.481      
Ag       Ag     0.807520000000     0.843965000000     0.709615000000     0.454      
Ag       Ag     0.858773333333     0.808875000000     0.641785000000     0.508      
Ag       Ag     0.820473333333     0.734380000000     0.694080000000     0.472      
F        F      0.928666666667     0.667000000000     0.581500000000    -0.141      
F        F      0.746233333333     0.822000000000     0.530500000000    -0.232      


