data_crystal

_cell_length_a 34.31380
_cell_length_b 34.31380
_cell_length_c 34.31380
_cell_angle_alpha 60.00000
_cell_angle_beta  60.00000
_cell_angle_gamma 60.00000

_symmetry_space_group_name_	'P 1'
_symmetry_space_group_name_H-M	'P 1'

loop_
_symmetry_equiv_pos_as_xyz
  x,y,z

loop_
_atom_site_label
_atom_site_type_symbol
_atom_site_fract_x
_atom_site_fract_y
_atom_site_fract_z
_atom_site_charge
Cd	Cd	0.52315 0.92661 0.47685 1.21300
Cd	Cd	0.97685 0.42661 0.02315 1.21200
Cd	Cd	0.07339 0.52315 0.47685 1.21300
Cd	Cd	0.57339 0.42661 0.97685 1.21300
Cd	Cd	0.92661 0.47685 0.52315 1.21300
Cd	Cd	0.97685 0.57339 0.42661 1.21300
Cd	Cd	0.92661 0.52315 0.07339 1.21300
Cd	Cd	0.57339 0.97685 0.02315 1.21200
Cd	Cd	0.02315 0.57339 0.97685 1.21200
Cd	Cd	0.92661 0.07339 0.47685 1.21300
Cd	Cd	0.52315 0.47685 0.07339 1.21300
Cd	Cd	0.47685 0.92661 0.07339 1.21300
Cd	Cd	0.42661 0.02315 0.97685 1.21200
Cd	Cd	0.07339 0.92661 0.52315 1.21300
Cd	Cd	0.52315 0.07339 0.92661 1.21300
Cd	Cd	0.42661 0.97685 0.57339 1.21300
Cd	Cd	0.07339 0.47685 0.92661 1.21300
Cd	Cd	0.57339 0.02315 0.42661 1.21300
Cd	Cd	0.42661 0.57339 0.02315 1.21300
Cd	Cd	0.02315 0.97685 0.42661 1.21200
Cd	Cd	0.47685 0.07339 0.52315 1.21300
Cd	Cd	0.02315 0.42661 0.57339 1.21300
Cd	Cd	0.47685 0.52315 0.92661 1.21300
Cd	Cd	0.97685 0.02315 0.57339 1.21200
H 	H 	0.82620 0.03920 0.44580 0.02900
H 	H 	0.43890 0.76850 0.79870 0.05600
H 	H 	0.80740 0.90440 0.71900 0.12800
H 	H 	0.19260 0.28100 0.43080 0.12800
H 	H 	0.69260 0.78100 0.59560 0.12800
H 	H 	0.73150 0.70130 0.50610 0.05600
H 	H 	0.46050 0.22950 0.12350 0.13200
H 	H 	0.53980 0.07280 0.33420 0.03700
H 	H 	0.68880 0.82620 0.44580 0.02800
H 	H 	0.90440 0.71900 0.80740 0.12800
H 	H 	0.66880 0.00340 0.10240 0.13000
H 	H 	0.95740 0.64040 0.62560 0.13600
H 	H 	0.87440 0.54260 0.72340 0.13700
H 	H 	0.94680 0.92720 0.46020 0.03800
H 	H 	0.76850 0.43890 0.99390 0.05600
H 	H 	0.78100 0.69260 0.93080 0.12600
H 	H 	0.29870 0.26850 0.93890 0.05600
H 	H 	0.85760 0.44800 0.26300 0.13800
H 	H 	0.11160 0.18760 0.64840 0.13800
H 	H 	0.54270 0.74970 0.00530 0.01600
H 	H 	0.00530 0.54270 0.74970 0.01600
H 	H 	0.16880 0.60240 0.50340 0.13000
H 	H 	0.39760 0.83120 0.27460 0.12900
H 	H 	0.17380 0.55420 0.31120 0.02800
H 	H 	0.70230 0.00530 0.74970 0.01600
H 	H 	0.75030 0.79770 0.95730 0.01500
H 	H 	0.49660 0.83120 0.39760 0.13000
H 	H 	0.54270 0.00530 0.70230 0.01500
H 	H 	0.96050 0.68650 0.62350 0.13100
H 	H 	0.31120 0.17380 0.55420 0.02800
H 	H 	0.90880 0.22140 0.37640 0.01900
H 	H 	0.72140 0.99340 0.40880 0.01900
H 	H 	0.72910 0.50690 0.66670 0.01000
H 	H 	0.18880 0.32620 0.53920 0.02800
H 	H 	0.16880 0.72540 0.60240 0.12900
H 	H 	0.94680 0.46020 0.66580 0.03700
H 	H 	0.44760 0.85160 0.38840 0.13800
H 	H 	0.56920 0.71900 0.90440 0.12800
H 	H 	0.87640 0.40880 0.99340 0.01900
H 	H 	0.56920 0.80740 0.71900 0.12800
H 	H 	0.20130 0.00610 0.56110 0.05500
H 	H 	0.24970 0.04270 0.50530 0.01500
H 	H 	0.70110 0.84090 0.95770 0.02200
H 	H 	0.50690 0.09730 0.66670 0.01000
H 	H 	0.60240 0.16880 0.72540 0.12900
H 	H 	0.27860 0.00660 0.59120 0.01900
H 	H 	0.55320 0.57280 0.83420 0.03700
H 	H 	0.83120 0.49660 0.27460 0.13000
H 	H 	0.76300 0.35760 0.93140 0.13800
H 	H 	0.30740 0.40440 0.06920 0.12700
H 	H 	0.20230 0.50530 0.04270 0.01500
H 	H 	0.79770 0.75030 0.49470 0.01500
H 	H 	0.46050 0.18650 0.22950 0.13200
H 	H 	0.23700 0.64240 0.06860 0.13800
H 	H 	0.87440 0.72340 0.85960 0.13700
H 	H 	0.83120 0.39760 0.49660 0.13000
H 	H 	0.76300 0.94800 0.35760 0.13800
H 	H 	0.37640 0.90880 0.22140 0.01900
H 	H 	0.06110 0.50610 0.70130 0.05600
H 	H 	0.44800 0.43140 0.26300 0.13800
H 	H 	0.29890 0.15910 0.04230 0.02200
H 	H 	0.50030 0.70110 0.95770 0.02200
H 	H 	0.49340 0.37640 0.22140 0.01900
H 	H 	0.00660 0.12360 0.59120 0.01900
H 	H 	0.96020 0.44680 0.16580 0.03700
H 	H 	0.64840 0.18760 0.05240 0.13800
H 	H 	0.68650 0.72950 0.62350 0.13200
H 	H 	0.17380 0.96080 0.55420 0.02900
H 	H 	0.31240 0.44760 0.38840 0.13800
H 	H 	0.35760 0.93140 0.76300 0.13800
H 	H 	0.99970 0.54230 0.79890 0.02300
H 	H 	0.59560 0.93080 0.69260 0.12700
H 	H 	0.95740 0.62560 0.77660 0.13600
H 	H 	0.12560 0.14040 0.45740 0.13700
H 	H 	0.59560 0.78100 0.93080 0.12700
H 	H 	0.68880 0.03920 0.82620 0.03000
H 	H 	0.38840 0.44760 0.85160 0.13800
H 	H 	0.54230 0.65910 0.79890 0.02200
H 	H 	0.09120 0.50660 0.77860 0.01900
H 	H 	0.20110 0.45770 0.34090 0.02200
H 	H 	0.12560 0.27660 0.14040 0.13700
H 	H 	0.40880 0.87640 0.72140 0.01900
H 	H 	0.06860 0.64240 0.05200 0.13800
H 	H 	0.16670 0.59730 0.00690 0.01000
H 	H 	0.54260 0.72340 0.87440 0.13700
H 	H 	0.68760 0.55240 0.61160 0.13800
H 	H 	0.15910 0.04230 0.29890 0.02200
H 	H 	0.70130 0.50610 0.73150 0.05600
H 	H 	0.03980 0.55320 0.83420 0.03700
H 	H 	0.64040 0.95740 0.77660 0.13500
H 	H 	0.44580 0.68880 0.82620 0.02800
H 	H 	0.64240 0.06860 0.23700 0.13800
H 	H 	0.09120 0.77860 0.62360 0.01900
H 	H 	0.10240 0.66880 0.00340 0.13000
H 	H 	0.35960 0.37440 0.04260 0.13600
H 	H 	0.95740 0.77660 0.64040 0.13500
H 	H 	0.82620 0.68880 0.03920 0.03000
H 	H 	0.04230 0.49970 0.29890 0.02200
H 	H 	0.99470 0.25030 0.29770 0.01600
H 	H 	0.50690 0.72910 0.09730 0.01100
H 	H 	0.53920 0.18880 0.32620 0.02800
H 	H 	0.77050 0.81350 0.87650 0.13200
H 	H 	0.46020 0.94680 0.92720 0.03800
H 	H 	0.77460 0.89760 0.99660 0.13000
H 	H 	0.77460 0.33120 0.89760 0.13000
H 	H 	0.59730 0.22910 0.00690 0.01100
H 	H 	0.14840 0.55240 0.68760 0.13800
H 	H 	0.06920 0.40440 0.21900 0.12700
H 	H 	0.22950 0.18650 0.12350 0.13200
H 	H 	0.59120 0.12360 0.27860 0.01900
H 	H 	0.22140 0.90880 0.49340 0.01900
H 	H 	0.32620 0.18880 0.94580 0.02800
H 	H 	0.04270 0.50530 0.24970 0.01500
H 	H 	0.00610 0.20130 0.23150 0.05500
H 	H 	0.35960 0.04260 0.22340 0.13500
H 	H 	0.00030 0.45770 0.20110 0.02300
H 	H 	0.22340 0.04260 0.37440 0.13600
H 	H 	0.29770 0.45730 0.99470 0.01500
H 	H 	0.53950 0.81350 0.77050 0.13200
H 	H 	0.31240 0.38840 0.85160 0.13800
H 	H 	0.31240 0.85160 0.44760 0.13800
H 	H 	0.93890 0.26850 0.49390 0.05600
H 	H 	0.90880 0.49340 0.22140 0.01900
H 	H 	0.07280 0.53980 0.05320 0.03800
H 	H 	0.84090 0.50030 0.95770 0.02200
H 	H 	0.94800 0.93140 0.35760 0.13800
H 	H 	0.85160 0.38840 0.44760 0.13800
H 	H 	0.40440 0.21900 0.06920 0.12700
H 	H 	0.26850 0.29870 0.49390 0.05600
H 	H 	0.37440 0.04260 0.35960 0.13600
H 	H 	0.99310 0.40270 0.77090 0.01100
H 	H 	0.27090 0.90270 0.49310 0.01100
H 	H 	0.06920 0.30740 0.40440 0.12700
H 	H 	0.20230 0.24970 0.50530 0.01500
H 	H 	0.20230 0.04270 0.24970 0.01500
H 	H 	0.07280 0.33420 0.53980 0.03700
H 	H 	0.46020 0.92720 0.66580 0.03700
H 	H 	0.00690 0.16670 0.59730 0.01000
H 	H 	0.29770 0.99470 0.25030 0.01600
H 	H 	0.77090 0.83330 0.99310 0.01100
H 	H 	0.62350 0.96050 0.68650 0.13100
H 	H 	0.68760 0.14840 0.55240 0.13800
H 	H 	0.94800 0.76300 0.93140 0.13800
H 	H 	0.12360 0.27860 0.59120 0.01900
H 	H 	0.23700 0.05200 0.64240 0.13800
H 	H 	0.33420 0.07280 0.05320 0.03800
H 	H 	0.22540 0.66880 0.10240 0.13000
H 	H 	0.83330 0.77090 0.40270 0.01000
H 	H 	0.09120 0.62360 0.50660 0.01900
H 	H 	0.75030 0.95730 0.49470 0.01500
H 	H 	0.70130 0.73150 0.06110 0.05600
H 	H 	0.78100 0.59560 0.69260 0.12800
H 	H 	0.62350 0.68650 0.72950 0.13200
H 	H 	0.12350 0.18650 0.46050 0.13200
H 	H 	0.31120 0.55420 0.96080 0.02800
H 	H 	0.93080 0.59560 0.78100 0.12700
H 	H 	0.44680 0.42720 0.16580 0.03700
H 	H 	0.54230 0.99970 0.65910 0.02300
H 	H 	0.32620 0.94580 0.53920 0.02800
H 	H 	0.53950 0.77050 0.87650 0.13200
H 	H 	0.93080 0.78100 0.69260 0.12600
H 	H 	0.03980 0.83420 0.57280 0.03700
H 	H 	0.38840 0.85160 0.31240 0.13800
H 	H 	0.87440 0.85960 0.54260 0.13700
H 	H 	0.26850 0.93890 0.29870 0.05600
H 	H 	0.16580 0.42720 0.96020 0.03700
H 	H 	0.39760 0.27460 0.49660 0.13000
H 	H 	0.05420 0.81120 0.46080 0.02800
H 	H 	0.04260 0.22340 0.35960 0.13500
H 	H 	0.25030 0.45730 0.29770 0.01500
H 	H 	0.11160 0.64840 0.05240 0.13800
H 	H 	0.81240 0.94760 0.35160 0.13800
H 	H 	0.65910 0.99970 0.79890 0.02400
H 	H 	0.80740 0.56920 0.90440 0.12800
H 	H 	0.43890 0.99390 0.76850 0.05600
H 	H 	0.10240 0.00340 0.22540 0.13000
H 	H 	0.29890 0.49970 0.15910 0.02200
H 	H 	0.64840 0.05240 0.11160 0.13800
H 	H 	0.22340 0.35960 0.04260 0.13500
H 	H 	0.14240 0.55200 0.73700 0.13800
H 	H 	0.31350 0.27050 0.37650 0.13200
H 	H 	0.00660 0.59120 0.27860 0.01900
H 	H 	0.03920 0.68880 0.44580 0.02800
H 	H 	0.99340 0.87640 0.40880 0.01900
H 	H 	0.73150 0.06110 0.70130 0.05600
H 	H 	0.33330 0.27090 0.49310 0.01000
H 	H 	0.21900 0.30740 0.06920 0.12600
H 	H 	0.18760 0.05240 0.64840 0.13800
H 	H 	0.65910 0.54230 0.99970 0.02300
H 	H 	0.03920 0.44580 0.82620 0.02900
H 	H 	0.45730 0.99470 0.29770 0.01500
H 	H 	0.76850 0.99390 0.79870 0.05500
H 	H 	0.37650 0.03950 0.31350 0.13100
H 	H 	0.26850 0.49390 0.93890 0.05600
H 	H 	0.09560 0.28100 0.19260 0.12800
H 	H 	0.14840 0.68760 0.61160 0.13800
H 	H 	0.56920 0.90440 0.80740 0.12800
H 	H 	0.55320 0.03980 0.57280 0.03700
H 	H 	0.53950 0.87650 0.81350 0.13200
H 	H 	0.93140 0.76300 0.35760 0.13800
H 	H 	0.87650 0.53950 0.77050 0.13200
H 	H 	0.06110 0.73150 0.50610 0.05600
H 	H 	0.77050 0.53950 0.81350 0.13200
H 	H 	0.83330 0.40270 0.99310 0.01000
H 	H 	0.95770 0.84090 0.50030 0.02200
H 	H 	0.99470 0.45730 0.25030 0.01600
H 	H 	0.77090 0.99310 0.40270 0.01100
H 	H 	0.85960 0.87440 0.72340 0.13700
H 	H 	0.96080 0.17380 0.31120 0.03000
H 	H 	0.67380 0.46080 0.81120 0.02800
H 	H 	0.40880 0.72140 0.99340 0.01900
H 	H 	0.99310 0.83330 0.40270 0.01000
H 	H 	0.89760 0.33120 0.99660 0.13000
H 	H 	0.90880 0.37640 0.49340 0.01900
H 	H 	0.81120 0.46080 0.05420 0.02800
H 	H 	0.18650 0.12350 0.22950 0.13200
H 	H 	0.62560 0.64040 0.77660 0.13700
H 	H 	0.10240 0.22540 0.66880 0.13000
H 	H 	0.05320 0.33420 0.07280 0.03800
H 	H 	0.66580 0.94680 0.46020 0.03700
H 	H 	0.45730 0.25030 0.99470 0.01600
H 	H 	0.54230 0.79890 0.99970 0.02300
H 	H 	0.74970 0.00530 0.54270 0.01600
H 	H 	0.43140 0.44800 0.85760 0.13800
H 	H 	0.03920 0.82620 0.68880 0.03000
H 	H 	0.33120 0.77460 0.99660 0.13000
H 	H 	0.73700 0.14240 0.55200 0.13800
H 	H 	0.72140 0.87640 0.99340 0.01900
H 	H 	0.62350 0.72950 0.96050 0.13100
H 	H 	0.05200 0.64240 0.23700 0.13800
H 	H 	0.37650 0.27050 0.03950 0.13100
H 	H 	0.43890 0.79870 0.99390 0.05500
H 	H 	0.18650 0.46050 0.12350 0.13200
H 	H 	0.16880 0.50340 0.72540 0.13000
H 	H 	0.96050 0.62350 0.72950 0.13100
H 	H 	0.94760 0.35160 0.81240 0.13800
H 	H 	0.90270 0.27090 0.33330 0.01100
H 	H 	0.46080 0.67380 0.05420 0.02800
H 	H 	0.88840 0.94760 0.81240 0.13900
H 	H 	0.30740 0.21900 0.40440 0.12800
H 	H 	0.05240 0.18760 0.11160 0.13900
H 	H 	0.33120 0.89760 0.77460 0.13000
H 	H 	0.59120 0.00660 0.12360 0.01900
H 	H 	0.79870 0.99390 0.43890 0.05500
H 	H 	0.04270 0.24970 0.20230 0.01500
H 	H 	0.64240 0.23700 0.05200 0.13800
H 	H 	0.04230 0.29890 0.15910 0.02200
H 	H 	0.72910 0.09730 0.50690 0.01100
H 	H 	0.45740 0.12560 0.14040 0.13700
H 	H 	0.95730 0.49470 0.75030 0.01500
H 	H 	0.43140 0.85760 0.26300 0.13800
H 	H 	0.27090 0.33330 0.90270 0.01100
H 	H 	0.84090 0.70110 0.50030 0.02200
H 	H 	0.27050 0.03950 0.37650 0.13100
H 	H 	0.27460 0.83120 0.49660 0.13000
H 	H 	0.96080 0.31120 0.55420 0.02800
H 	H 	0.35160 0.81240 0.94760 0.13800
H 	H 	0.23150 0.00610 0.20130 0.05500
H 	H 	0.37640 0.22140 0.49340 0.01900
H 	H 	0.15910 0.29890 0.49970 0.02200
H 	H 	0.28100 0.43080 0.19260 0.12800
H 	H 	0.81120 0.67380 0.46080 0.02800
H 	H 	0.95770 0.50030 0.70110 0.02200
H 	H 	0.81350 0.87650 0.77050 0.13200
H 	H 	0.04270 0.20230 0.50530 0.01500
H 	H 	0.06860 0.05200 0.23700 0.13800
H 	H 	0.66880 0.22540 0.00340 0.13000
H 	H 	0.27050 0.31350 0.03950 0.13000
H 	H 	0.22140 0.49340 0.37640 0.01900
H 	H 	0.19260 0.43080 0.09560 0.12800
H 	H 	0.64240 0.05200 0.06860 0.13800
H 	H 	0.14840 0.61160 0.55240 0.13800
H 	H 	0.74970 0.70230 0.00530 0.01600
H 	H 	0.92720 0.46020 0.94680 0.03800
H 	H 	0.80740 0.71900 0.56920 0.12800
H 	H 	0.31350 0.37650 0.03950 0.13100
H 	H 	0.56110 0.00610 0.23150 0.05600
H 	H 	0.57280 0.55320 0.03980 0.03700
H 	H 	0.12360 0.00660 0.27860 0.01900
H 	H 	0.50030 0.95770 0.84090 0.02200
H 	H 	0.22910 0.16670 0.00690 0.01100
H 	H 	0.96080 0.55420 0.17380 0.02900
H 	H 	0.27090 0.49310 0.33330 0.01000
H 	H 	0.56110 0.20130 0.00610 0.05500
H 	H 	0.50340 0.72540 0.16880 0.13000
H 	H 	0.09730 0.66670 0.50690 0.01000
H 	H 	0.40270 0.77090 0.99310 0.01100
H 	H 	0.06110 0.70130 0.73150 0.05600
H 	H 	0.05240 0.11160 0.64840 0.13800
H 	H 	0.67380 0.05420 0.46080 0.02800
H 	H 	0.85960 0.72340 0.54260 0.13700
H 	H 	0.18760 0.64840 0.11160 0.13800
H 	H 	0.26300 0.85760 0.44800 0.13800
H 	H 	0.54260 0.87440 0.85960 0.13700
H 	H 	0.35760 0.76300 0.94800 0.13800
H 	H 	0.96020 0.42720 0.44680 0.03700
H 	H 	0.66670 0.50690 0.09730 0.01000
H 	H 	0.37640 0.49340 0.90880 0.01900
H 	H 	0.55240 0.68760 0.14840 0.13800
H 	H 	0.69260 0.93080 0.78100 0.12600
H 	H 	0.59120 0.27860 0.00660 0.01900
H 	H 	0.22950 0.12350 0.46050 0.13200
H 	H 	0.49470 0.79770 0.75030 0.01500
H 	H 	0.16580 0.44680 0.42720 0.03700
H 	H 	0.22910 0.59730 0.16670 0.01000
H 	H 	0.77660 0.95740 0.62560 0.13600
H 	H 	0.55320 0.83420 0.03980 0.03700
H 	H 	0.81240 0.88840 0.94760 0.13900
H 	H 	0.50660 0.62360 0.77860 0.01900
H 	H 	0.49470 0.75030 0.95730 0.01500
H 	H 	0.55200 0.56860 0.73700 0.13800
H 	H 	0.04230 0.15910 0.49970 0.02200
H 	H 	0.18880 0.53920 0.94580 0.02800
H 	H 	0.55420 0.31120 0.17380 0.02800
H 	H 	0.00340 0.22540 0.10240 0.13000
H 	H 	0.49390 0.29870 0.93890 0.05600
H 	H 	0.64040 0.77660 0.62560 0.13700
H 	H 	0.49390 0.26850 0.29870 0.05600
H 	H 	0.29870 0.93890 0.49390 0.05600
H 	H 	0.99660 0.77460 0.89760 0.13000
H 	H 	0.05200 0.23700 0.06860 0.13800
H 	H 	0.94580 0.53920 0.32620 0.02800
H 	H 	0.46050 0.12350 0.18650 0.13200
H 	H 	0.90270 0.49310 0.27090 0.01100
H 	H 	0.53920 0.94580 0.18880 0.02800
H 	H 	0.56860 0.14240 0.73700 0.13800
H 	H 	0.23150 0.20130 0.56110 0.05600
H 	H 	0.14040 0.45740 0.12560 0.13700
H 	H 	0.33330 0.49310 0.90270 0.01000
H 	H 	0.44680 0.96020 0.42720 0.03700
H 	H 	0.99660 0.89760 0.33120 0.13000
H 	H 	0.83420 0.57280 0.03980 0.03700
H 	H 	0.28100 0.19260 0.09560 0.12800
H 	H 	0.24970 0.50530 0.20230 0.01500
H 	H 	0.44580 0.82620 0.03920 0.02900
H 	H 	0.31350 0.03950 0.27050 0.13000
H 	H 	0.50610 0.73150 0.70130 0.05600
H 	H 	0.85160 0.31240 0.38840 0.13800
H 	H 	0.96050 0.72950 0.68650 0.13000
H 	H 	0.33120 0.99660 0.89760 0.13000
H 	H 	0.04260 0.37440 0.22340 0.13600
H 	H 	0.46020 0.66580 0.94680 0.03700
H 	H 	0.45740 0.14040 0.27660 0.13700
H 	H 	0.72340 0.54260 0.85960 0.13700
H 	H 	0.04260 0.35960 0.37440 0.13600
H 	H 	0.85160 0.44760 0.31240 0.13800
H 	H 	0.89760 0.77460 0.33120 0.13000
H 	H 	0.79870 0.43890 0.76850 0.05600
H 	H 	0.99970 0.65910 0.54230 0.02300
H 	H 	0.25030 0.99470 0.45730 0.01600
H 	H 	0.37440 0.35960 0.22340 0.13700
H 	H 	0.83330 0.99310 0.77090 0.01100
H 	H 	0.70230 0.54270 0.00530 0.01500
H 	H 	0.35160 0.88840 0.81240 0.13800
H 	H 	0.29890 0.04230 0.49970 0.02200
H 	H 	0.74970 0.54270 0.70230 0.01500
H 	H 	0.94760 0.81240 0.88840 0.13900
H 	H 	0.42720 0.16580 0.44680 0.03700
H 	H 	0.49970 0.15910 0.29890 0.02200
H 	H 	0.39760 0.49660 0.83120 0.13000
H 	H 	0.27660 0.14040 0.12560 0.13700
H 	H 	0.99470 0.29770 0.45730 0.01500
H 	H 	0.49310 0.33330 0.27090 0.01000
H 	H 	0.49310 0.27090 0.90270 0.01100
H 	H 	0.60240 0.72540 0.50340 0.13000
H 	H 	0.05200 0.06860 0.64240 0.13800
H 	H 	0.95730 0.79770 0.49470 0.01500
H 	H 	0.61160 0.68760 0.55240 0.13800
H 	H 	0.79870 0.76850 0.99390 0.05500
H 	H 	0.55200 0.14240 0.56860 0.13800
H 	H 	0.71900 0.90440 0.56920 0.12800
H 	H 	0.19260 0.09560 0.28100 0.12800
H 	H 	0.53980 0.05320 0.07280 0.03800
H 	H 	0.27860 0.12360 0.00660 0.01900
H 	H 	0.99310 0.77090 0.83330 0.01100
H 	H 	0.50660 0.77860 0.09120 0.01900
H 	H 	0.54260 0.85960 0.72340 0.13700
H 	H 	0.73150 0.50610 0.06110 0.05600
H 	H 	0.66670 0.72910 0.50690 0.01000
H 	H 	0.27660 0.45740 0.14040 0.13700
H 	H 	0.09730 0.50690 0.72910 0.01100
H 	H 	0.70110 0.95770 0.50030 0.02200
H 	H 	0.27460 0.39760 0.83120 0.12900
H 	H 	0.93890 0.29870 0.26850 0.05600
H 	H 	0.03980 0.57280 0.55320 0.03700
H 	H 	0.81240 0.35160 0.88840 0.13800
H 	H 	0.56110 0.23150 0.20130 0.05600
H 	H 	0.33420 0.05320 0.53980 0.03700
H 	H 	0.38840 0.31240 0.44760 0.13800
H 	H 	0.99390 0.79870 0.76850 0.05500
H 	H 	0.55240 0.61160 0.68760 0.13800
H 	H 	0.92720 0.94680 0.66580 0.03800
H 	H 	0.27050 0.37650 0.31350 0.13200
H 	H 	0.67380 0.81120 0.05420 0.02800
H 	H 	0.87650 0.77050 0.81350 0.13200
H 	H 	0.79890 0.99970 0.54230 0.02300
H 	H 	0.70230 0.74970 0.54270 0.01500
H 	H 	0.50610 0.70130 0.06110 0.05600
H 	H 	0.99390 0.76850 0.43890 0.05600
H 	H 	0.00030 0.34090 0.45770 0.02300
H 	H 	0.89760 0.99660 0.77460 0.13000
H 	H 	0.18650 0.22950 0.46050 0.13200
H 	H 	0.29870 0.49390 0.26850 0.05600
H 	H 	0.34090 0.00030 0.20110 0.02400
H 	H 	0.94580 0.32620 0.18880 0.02800
H 	H 	0.49390 0.93890 0.26850 0.05600
H 	H 	0.50530 0.20230 0.24970 0.01500
H 	H 	0.72540 0.60240 0.16880 0.12900
H 	H 	0.62360 0.09120 0.77860 0.01900
H 	H 	0.64840 0.11160 0.18760 0.13800
H 	H 	0.75030 0.49470 0.79770 0.01500
H 	H 	0.77090 0.40270 0.83330 0.01000
H 	H 	0.85760 0.43140 0.44800 0.13800
H 	H 	0.45730 0.29770 0.25030 0.01500
H 	H 	0.03950 0.31350 0.37650 0.13100
H 	H 	0.99390 0.43890 0.79870 0.05500
H 	H 	0.72950 0.68650 0.96050 0.13000
H 	H 	0.40440 0.06920 0.30740 0.12700
H 	H 	0.15910 0.49970 0.04230 0.02200
H 	H 	0.17380 0.31120 0.96080 0.03000
H 	H 	0.27860 0.59120 0.12360 0.01900
H 	H 	0.50340 0.16880 0.60240 0.13000
H 	H 	0.68880 0.44580 0.03920 0.02800
H 	H 	0.14040 0.27660 0.45740 0.13700
H 	H 	0.50610 0.06110 0.73150 0.05600
H 	H 	0.23150 0.56110 0.00610 0.05600
H 	H 	0.44680 0.16580 0.96020 0.03700
H 	H 	0.33330 0.90270 0.27090 0.01100
H 	H 	0.50530 0.24970 0.04270 0.01500
H 	H 	0.94580 0.18880 0.53920 0.02800
H 	H 	0.40880 0.99340 0.87640 0.01900
H 	H 	0.12350 0.22950 0.18650 0.13200
H 	H 	0.99970 0.79890 0.65910 0.02400
H 	H 	0.66880 0.10240 0.22540 0.13000
H 	H 	0.81120 0.05420 0.67380 0.02800
H 	H 	0.22340 0.37440 0.35960 0.13700
H 	H 	0.50030 0.84090 0.70110 0.02200
H 	H 	0.55200 0.73700 0.14240 0.13800
H 	H 	0.81350 0.53950 0.87650 0.13200
H 	H 	0.50660 0.09120 0.62360 0.01900
H 	H 	0.77860 0.09120 0.50660 0.01900
H 	H 	0.22910 0.00690 0.59730 0.01100
H 	H 	0.14040 0.12560 0.27660 0.13700
H 	H 	0.09560 0.43080 0.28100 0.12800
H 	H 	0.34090 0.45770 0.00030 0.02300
H 	H 	0.05420 0.46080 0.67380 0.02800
H 	H 	0.26300 0.43140 0.85760 0.13800
H 	H 	0.55420 0.17380 0.96080 0.02900
H 	H 	0.11160 0.05240 0.18760 0.13900
H 	H 	0.42720 0.96020 0.16580 0.03700
H 	H 	0.95730 0.75030 0.79770 0.01500
H 	H 	0.24970 0.20230 0.04270 0.01500
H 	H 	0.49660 0.39760 0.27460 0.13000
H 	H 	0.27660 0.12560 0.45740 0.13700
H 	H 	0.00340 0.10240 0.66880 0.13000
H 	H 	0.43080 0.09560 0.19260 0.12800
H 	H 	0.42720 0.44680 0.96020 0.03700
H 	H 	0.77460 0.99660 0.33120 0.13000
H 	H 	0.46080 0.81120 0.67380 0.02800
H 	H 	0.69260 0.59560 0.93080 0.12700
H 	H 	0.56860 0.73700 0.55200 0.13800
H 	H 	0.12360 0.59120 0.00660 0.01900
H 	H 	0.44800 0.26300 0.85760 0.13800
H 	H 	0.83420 0.55320 0.57280 0.03700
H 	H 	0.22140 0.37640 0.90880 0.01900
H 	H 	0.79770 0.49470 0.95730 0.01500
H 	H 	0.03950 0.27050 0.31350 0.13000
H 	H 	0.32620 0.53920 0.18880 0.02800
H 	H 	0.34090 0.20110 0.45770 0.02200
H 	H 	0.49310 0.90270 0.33330 0.01000
H 	H 	0.76850 0.79870 0.43890 0.05600
H 	H 	0.81350 0.77050 0.53950 0.13200
H 	H 	0.94800 0.35760 0.76300 0.13800
H 	H 	0.35760 0.94800 0.93140 0.13800
H 	H 	0.45770 0.00030 0.34090 0.02300
H 	H 	0.45770 0.34090 0.20110 0.02200
H 	H 	0.72540 0.16880 0.50340 0.13000
H 	H 	0.44580 0.03920 0.68880 0.02800
H 	H 	0.05420 0.67380 0.81120 0.02800
H 	H 	0.21900 0.06920 0.40440 0.12700
H 	H 	0.99340 0.40880 0.72140 0.01900
H 	H 	0.79890 0.65910 0.99970 0.02400
H 	H 	0.62560 0.95740 0.64040 0.13600
H 	H 	0.00030 0.20110 0.34090 0.02400
H 	H 	0.16670 0.00690 0.22910 0.01100
H 	H 	0.40270 0.99310 0.83330 0.01000
H 	H 	0.96020 0.16580 0.42720 0.03700
H 	H 	0.62360 0.77860 0.50660 0.01900
H 	H 	0.77660 0.64040 0.95740 0.13500
H 	H 	0.49340 0.90880 0.37640 0.01900
H 	H 	0.68760 0.61160 0.14840 0.13800
H 	H 	0.72910 0.66670 0.09730 0.01100
H 	H 	0.68650 0.96050 0.72950 0.13000
H 	H 	0.76300 0.93140 0.94800 0.13800
H 	H 	0.99660 0.33120 0.77460 0.13000
H 	H 	0.95770 0.70110 0.84090 0.02200
H 	H 	0.00690 0.59730 0.22910 0.01100
H 	H 	0.93140 0.35760 0.94800 0.13800
H 	H 	0.16580 0.96020 0.44680 0.03700
H 	H 	0.44760 0.38840 0.31240 0.13800
H 	H 	0.84090 0.95770 0.70110 0.02200
H 	H 	0.16670 0.22910 0.59730 0.01000
H 	H 	0.59560 0.69260 0.78100 0.12800
H 	H 	0.55240 0.14840 0.61160 0.13800
H 	H 	0.18760 0.11160 0.05240 0.13900
H 	H 	0.43080 0.19260 0.28100 0.12800
H 	H 	0.85760 0.26300 0.43140 0.13800
H 	H 	0.50530 0.04270 0.20230 0.01500
H 	H 	0.61160 0.14840 0.68760 0.13800
H 	H 	0.44800 0.85760 0.43140 0.13800
H 	H 	0.20130 0.56110 0.23150 0.05600
H 	H 	0.27460 0.49660 0.39760 0.13000
H 	H 	0.20110 0.00030 0.45770 0.02300
H 	H 	0.22540 0.00340 0.66880 0.13000
H 	H 	0.83120 0.27460 0.39760 0.12900
H 	H 	0.70110 0.50030 0.84090 0.02200
H 	H 	0.25030 0.29770 0.99470 0.01600
H 	H 	0.00610 0.56110 0.20130 0.05500
H 	H 	0.64040 0.62560 0.95740 0.13600
H 	H 	0.05320 0.53980 0.33420 0.03700
H 	H 	0.40440 0.30740 0.21900 0.12800
H 	H 	0.20110 0.34090 0.00030 0.02400
H 	H 	0.44760 0.31240 0.85160 0.13800
H 	H 	0.73700 0.56860 0.14240 0.13800
H 	H 	0.57280 0.83420 0.55320 0.03700
H 	H 	0.09730 0.72910 0.66670 0.01100
H 	H 	0.12560 0.45740 0.27660 0.13700
H 	H 	0.77050 0.87650 0.53950 0.13200
H 	H 	0.30740 0.06920 0.21900 0.12600
H 	H 	0.99340 0.72140 0.87640 0.01900
H 	H 	0.35960 0.22340 0.37440 0.13700
H 	H 	0.33420 0.53980 0.07280 0.03700
H 	H 	0.62560 0.77660 0.95740 0.13600
H 	H 	0.14240 0.56860 0.55200 0.13800
H 	H 	0.00530 0.70230 0.54270 0.01500
H 	H 	0.18880 0.94580 0.32620 0.02800
H 	H 	0.43140 0.26300 0.44800 0.13800
H 	H 	0.71900 0.56920 0.80740 0.12800
H 	H 	0.07280 0.05320 0.33420 0.03800
H 	H 	0.66580 0.46020 0.92720 0.03700
H 	H 	0.85960 0.54260 0.87440 0.13700
H 	H 	0.93890 0.49390 0.29870 0.05600
H 	H 	0.03950 0.37650 0.27050 0.13100
H 	H 	0.06860 0.23700 0.64240 0.13800
H 	H 	0.43080 0.28100 0.09560 0.12800
H 	H 	0.66580 0.92720 0.94680 0.03800
H 	H 	0.90440 0.56920 0.71900 0.12800
H 	H 	0.28100 0.09560 0.43080 0.12800
H 	H 	0.77860 0.62360 0.09120 0.01900
H 	H 	0.49970 0.29890 0.04230 0.02200
H 	H 	0.61160 0.55240 0.14840 0.13800
H 	H 	0.92720 0.66580 0.46020 0.03700
H 	H 	0.49660 0.27460 0.83120 0.13000
H 	H 	0.50690 0.66670 0.72910 0.01000
H 	H 	0.37650 0.31350 0.27050 0.13200
H 	H 	0.94760 0.88840 0.35160 0.13800
H 	H 	0.53980 0.33420 0.05320 0.03700
H 	H 	0.14240 0.73700 0.56860 0.13800
H 	H 	0.37440 0.22340 0.04260 0.13600
H 	H 	0.77660 0.62560 0.64040 0.13700
H 	H 	0.53920 0.32620 0.94580 0.02800
H 	H 	0.78100 0.93080 0.59560 0.12700
H 	H 	0.45770 0.20110 0.00030 0.02300
H 	H 	0.79890 0.54230 0.65910 0.02200
H 	H 	0.21900 0.40440 0.30740 0.12800
H 	H 	0.72340 0.85960 0.87440 0.13700
H 	H 	0.00610 0.23150 0.56110 0.05600
H 	H 	0.90440 0.80740 0.56920 0.12800
H 	H 	0.65910 0.79890 0.54230 0.02200
H 	H 	0.77860 0.50660 0.62360 0.01900
H 	H 	0.90270 0.33330 0.49310 0.01000
H 	H 	0.45740 0.27660 0.12560 0.13700
H 	H 	0.40270 0.83330 0.77090 0.01000
H 	H 	0.05320 0.07280 0.53980 0.03800
H 	H 	0.73700 0.55200 0.56860 0.13800
H 	H 	0.49340 0.22140 0.90880 0.01900
H 	H 	0.66670 0.09730 0.72910 0.01100
H 	H 	0.93140 0.94800 0.76300 0.13800
H 	H 	0.54270 0.70230 0.74970 0.01500
H 	H 	0.94680 0.66580 0.92720 0.03800
H 	H 	0.56860 0.55200 0.14240 0.13800
H 	H 	0.35160 0.94760 0.88840 0.13800
H 	H 	0.00340 0.66880 0.22540 0.13000
H 	H 	0.09560 0.19260 0.43080 0.12800
H 	H 	0.82620 0.44580 0.68880 0.02800
H 	H 	0.72950 0.96050 0.62350 0.13100
H 	H 	0.60240 0.50340 0.16880 0.13000
H 	H 	0.87640 0.72140 0.40880 0.01900
H 	H 	0.72340 0.87440 0.54260 0.13700
H 	H 	0.49970 0.04230 0.15910 0.02200
H 	H 	0.62360 0.50660 0.09120 0.01900
H 	H 	0.00690 0.22910 0.16670 0.01100
H 	H 	0.55420 0.96080 0.31120 0.02800
H 	H 	0.49470 0.95730 0.79770 0.01500
H 	H 	0.93080 0.69260 0.59560 0.12700
H 	H 	0.87640 0.99340 0.72140 0.01900
H 	H 	0.68650 0.62350 0.96050 0.13100
H 	H 	0.06920 0.21900 0.30740 0.12600
H 	H 	0.59730 0.16670 0.22910 0.01000
H 	H 	0.00660 0.27860 0.12360 0.01900
H 	H 	0.29770 0.25030 0.45730 0.01500
H 	H 	0.20130 0.23150 0.00610 0.05500
H 	H 	0.72140 0.40880 0.87640 0.01900
H 	H 	0.22540 0.10240 0.00340 0.13000
H 	H 	0.57280 0.03980 0.83420 0.03700
H 	H 	0.79770 0.95730 0.75030 0.01500
H 	H 	0.88840 0.81240 0.35160 0.13800
H 	H 	0.87650 0.81350 0.53950 0.13200
H 	H 	0.23700 0.06860 0.05200 0.13800
H 	H 	0.46080 0.05420 0.81120 0.02800
H 	H 	0.26300 0.44800 0.43140 0.13800
H 	H 	0.59730 0.00690 0.16670 0.01000
H 	H 	0.50340 0.60240 0.72540 0.13000
H 	H 	0.83420 0.03980 0.55320 0.03700
H 	H 	0.05240 0.64840 0.18760 0.13800
H 	H 	0.88840 0.35160 0.94760 0.13800
H 	H 	0.71900 0.80740 0.90440 0.12800
H 	H 	0.72950 0.62350 0.68650 0.13200
H 	H 	0.72540 0.50340 0.60240 0.13000
H 	H 	0.12350 0.46050 0.22950 0.13200
H 	H 	0.31120 0.96080 0.17380 0.03000
H 	H 	0.00530 0.74970 0.70230 0.01600
H 	H 	0.70130 0.06110 0.50610 0.05600
H 	H 	0.22950 0.46050 0.18650 0.13200
C 	C 	0.03698 0.59664 0.88254 0.33200
C 	C 	0.61746 0.90336 0.46302 0.33200
C 	C 	0.81261 0.89439 0.84917 -0.03900
C 	C 	0.90435 0.47401 0.25563 0.03400
C 	C 	0.14564 0.19022 0.55576 0.01200
C 	C 	0.58336 0.55934 0.81354 -0.03000
C 	C 	0.47401 0.90435 0.36601 0.03400
C 	C 	0.26504 0.50326 0.16978 0.03400
C 	C 	0.65509 0.05207 0.49325 0.01500
C 	C 	0.14298 0.53418 0.72160 -0.40800
C 	C 	0.63399 0.74437 0.52599 0.03500
C 	C 	0.67258 0.76288 0.60548 -0.39800
C 	C 	0.74789 0.44357 0.98001 -0.09700
C 	C 	0.74102 0.05066 0.57228 -0.04200
C 	C 	0.85702 0.46582 0.27840 -0.40800
C 	C 	0.07228 0.55066 0.24102 -0.04300
C 	C 	0.40066 0.41406 0.23410 -0.00700
C 	C 	0.24437 0.59565 0.13399 0.03500
C 	C 	0.41406 0.23410 0.40066 -0.00700
C 	C 	0.04376 0.55934 0.58336 -0.03000
C 	C 	0.55643 0.17147 0.01999 -0.09600
C 	C 	0.59565 0.13399 0.24437 0.03500
C 	C 	0.68646 0.94066 0.91664 -0.03400
C 	C 	0.43808 0.99674 0.33022 0.03100
C 	C 	0.65509 0.79959 0.05207 0.01500
C 	C 	0.09934 0.26590 0.08594 -0.00500
C 	C 	0.61746 0.46302 0.01616 0.33200
C 	C 	0.25563 0.47401 0.36601 0.03500
C 	C 	0.15083 0.10561 0.55617 -0.04000
C 	C 	0.31261 0.94383 0.34917 -0.04000
C 	C 	0.89439 0.81261 0.44383 -0.04000
C 	C 	0.24437 0.02599 0.59565 0.03500
C 	C 	0.89439 0.84917 0.81261 -0.03900
C 	C 	0.92772 0.86396 0.44934 -0.04300
C 	C 	0.94793 0.20041 0.50675 0.01600
C 	C 	0.44614 0.85608 0.93258 0.02100
C 	C 	0.60548 0.76288 0.95906 -0.39400
C 	C 	0.97401 0.40435 0.75563 0.03500
C 	C 	0.64298 0.03418 0.10124 -0.40900
C 	C 	0.99674 0.33022 0.43808 0.03100
C 	C 	0.05643 0.75211 0.51999 -0.09900
C 	C 	0.44424 0.89162 0.85436 0.01100
C 	C 	0.48001 0.24789 0.32853 -0.09900
C 	C 	0.04882 0.58594 0.59934 -0.00800
C 	C 	0.77840 0.96582 0.35702 -0.40800
C 	C 	0.09664 0.53698 0.38254 0.33200
C 	C 	0.85436 0.80978 0.44424 0.01200
C 	C 	0.93808 0.49674 0.73496 0.03400
C 	C 	0.60561 0.65083 0.05617 -0.04000
C 	C 	0.09565 0.52599 0.74437 0.03400
C 	C 	0.99325 0.29959 0.55207 0.01400
C 	C 	0.74102 0.57228 0.63604 -0.04300
C 	C 	0.93808 0.83022 0.49674 0.03400
C 	C 	0.18739 0.10561 0.15083 -0.03900
C 	C 	0.05576 0.60838 0.69022 0.01100
C 	C 	0.14298 0.72160 0.60124 -0.40800
C 	C 	0.14392 0.06742 0.55386 0.02100
C 	C 	0.35702 0.89876 0.77840 -0.40900
C 	C 	0.16978 0.50326 0.06192 0.03400
C 	C 	0.44934 0.75898 0.92772 -0.04300
C 	C 	0.50326 0.26504 0.06192 0.03400
C 	C 	0.16927 0.95533 0.38825 -0.10700
C 	C 	0.01616 0.46302 0.90336 0.33000
C 	C 	0.10124 0.64298 0.03418 -0.40900
C 	C 	0.26520 0.35608 0.43258 0.02200
C 	C 	0.38254 0.53698 0.98384 0.33200
C 	C 	0.24789 0.48001 0.94357 -0.09900
C 	C 	0.40336 0.51616 0.11746 0.33200
C 	C 	0.36601 0.25563 0.47401 0.03500
C 	C 	0.01285 0.33073 0.54467 -0.10500
C 	C 	0.44793 0.70041 0.84491 0.01500
C 	C 	0.54882 0.26590 0.09934 -0.00700
C 	C 	0.52599 0.09565 0.63399 0.03400
C 	C 	0.04467 0.61175 0.83073 -0.10700
C 	C 	0.73496 0.49674 0.83022 0.03400
C 	C 	0.11746 0.96302 0.40336 0.33200
C 	C 	0.15509 0.99325 0.55207 0.01100
C 	C 	0.23480 0.55386 0.06742 0.02100
C 	C 	0.34917 0.31261 0.94383 -0.04000
C 	C 	0.10561 0.18739 0.55617 -0.04000
C 	C 	0.04376 0.81354 0.55934 -0.03000
C 	C 	0.94066 0.68646 0.45624 -0.03100
C 	C 	0.08594 0.26590 0.54882 -0.00700
C 	C 	0.00675 0.84491 0.70041 0.00800
C 	C 	0.94424 0.39162 0.30978 0.01100
C 	C 	0.60561 0.05617 0.68739 -0.04000
C 	C 	0.73496 0.83022 0.93808 0.03400
C 	C 	0.05066 0.57228 0.74102 -0.04200
C 	C 	0.55066 0.07228 0.13604 -0.04300
C 	C 	0.10561 0.15083 0.18739 -0.03900
C 	C 	0.88254 0.03698 0.59664 0.33200
C 	C 	0.54376 0.05934 0.31354 -0.03100
C 	C 	0.91664 0.94066 0.45624 -0.03200
C 	C 	0.24102 0.07228 0.55066 -0.04300
C 	C 	0.15509 0.29959 0.99325 0.00800
C 	C 	0.83022 0.73496 0.49674 0.03400
C 	C 	0.51999 0.67147 0.05643 -0.09900
C 	C 	0.93258 0.85608 0.76520 0.02000
C 	C 	0.25898 0.36396 0.94934 -0.04200
C 	C 	0.59664 0.03698 0.48384 0.33200
C 	C 	0.51616 0.11746 0.40336 0.33200
C 	C 	0.00675 0.70041 0.44793 0.01400
C 	C 	0.55617 0.18739 0.15083 -0.04000
C 	C 	0.75211 0.05643 0.67147 -0.09900
C 	C 	0.36396 0.42772 0.94934 -0.04200
C 	C 	0.42772 0.94934 0.36396 -0.04200
C 	C 	0.22160 0.10124 0.03418 -0.40900
C 	C 	0.41406 0.40066 0.95118 -0.00800
C 	C 	0.95906 0.67258 0.60548 -0.39500
C 	C 	0.89452 0.73712 0.82742 -0.39800
C 	C 	0.76504 0.66978 0.00326 0.02800
C 	C 	0.18739 0.55617 0.10561 -0.04000
C 	C 	0.94424 0.30978 0.35436 0.01100
C 	C 	0.39162 0.30978 0.94424 0.01100
C 	C 	0.26288 0.45906 0.17258 -0.39800
C 	C 	0.20041 0.50675 0.94793 0.01600
C 	C 	0.38825 0.16927 0.95533 -0.10700
C 	C 	0.81261 0.84917 0.44383 -0.04000
C 	C 	0.89162 0.85436 0.44424 0.01100
C 	C 	0.00326 0.66978 0.56192 0.03100
C 	C 	0.40336 0.96302 0.51616 0.33200
C 	C 	0.11746 0.51616 0.96302 0.33200
C 	C 	0.59934 0.58594 0.76590 -0.00700
C 	C 	0.94934 0.36396 0.42772 -0.04200
C 	C 	0.10548 0.17258 0.45906 -0.39800
C 	C 	0.23712 0.32742 0.04094 -0.39300
C 	C 	0.91406 0.73410 0.45118 -0.00700
C 	C 	0.27840 0.46582 0.39876 -0.40900
C 	C 	0.11175 0.01285 0.54467 -0.10300
C 	C 	0.11175 0.33073 0.01285 -0.10100
C 	C 	0.94357 0.32853 0.24789 -0.09900
C 	C 	0.89452 0.82742 0.54094 -0.39800
C 	C 	0.69022 0.60838 0.64564 0.01200
C 	C 	0.63604 0.05066 0.74102 -0.04200
C 	C 	0.53698 0.38254 0.09664 0.33200
C 	C 	0.58594 0.04882 0.76590 -0.00800
C 	C 	0.90435 0.36601 0.47401 0.03400
C 	C 	0.45906 0.26288 0.10548 -0.39800
C 	C 	0.83073 0.04467 0.61175 -0.10700
C 	C 	0.96302 0.11746 0.51616 0.33200
C 	C 	0.18739 0.15083 0.55617 -0.04000
C 	C 	0.54467 0.11175 0.01285 -0.10300
C 	C 	0.82742 0.73712 0.54094 -0.39800
C 	C 	0.81354 0.58336 0.55934 -0.03000
C 	C 	0.53418 0.14298 0.60124 -0.40800
C 	C 	0.73712 0.89452 0.54094 -0.39800
C 	C 	0.94383 0.39439 0.34917 -0.04000
C 	C 	0.55576 0.14564 0.19022 0.01200
C 	C 	0.09565 0.63399 0.52599 0.03400
C 	C 	0.99325 0.15509 0.29959 0.00800
C 	C 	0.55386 0.23480 0.14392 0.02200
C 	C 	0.84491 0.00675 0.44793 0.01100
C 	C 	0.45118 0.91406 0.73410 -0.00700
C 	C 	0.68646 0.45624 0.94066 -0.03100
C 	C 	0.96582 0.35702 0.77840 -0.40800
C 	C 	0.35608 0.94614 0.43258 0.02200
C 	C 	0.32853 0.48001 0.24789 -0.09900
C 	C 	0.55207 0.29959 0.15509 0.01500
C 	C 	0.90336 0.61746 0.01616 0.32800
C 	C 	0.44066 0.41664 0.95624 -0.03000
C 	C 	0.25211 0.55643 0.01999 -0.09700
C 	C 	0.22160 0.03418 0.64298 -0.40800
C 	C 	0.56742 0.73480 0.64392 0.02200
C 	C 	0.82742 0.89452 0.73712 -0.39800
C 	C 	0.44357 0.82853 0.98001 -0.09600
C 	C 	0.11175 0.54467 0.33073 -0.10700
C 	C 	0.82853 0.44357 0.74789 -0.09900
C 	C 	0.92772 0.75898 0.86396 -0.04400
C 	C 	0.61175 0.83073 0.04467 -0.10700
C 	C 	0.00326 0.56192 0.76504 0.03000
C 	C 	0.94614 0.35608 0.26520 0.02200
C 	C 	0.55643 0.01999 0.25211 -0.09700
C 	C 	0.64298 0.22160 0.03418 -0.40800
C 	C 	0.48384 0.59664 0.03698 0.33200
C 	C 	0.73712 0.54094 0.82742 -0.39800
C 	C 	0.76520 0.85608 0.44614 0.02200
C 	C 	0.39162 0.35436 0.30978 0.01200
C 	C 	0.02599 0.59565 0.24437 0.03500
C 	C 	0.06192 0.50326 0.26504 0.03400
C 	C 	0.84917 0.89439 0.44383 -0.04000
C 	C 	0.14392 0.23480 0.06742 0.02000
C 	C 	0.09664 0.98384 0.53698 0.33000
C 	C 	0.44383 0.89439 0.81261 -0.04000
C 	C 	0.19022 0.55576 0.14564 0.01200
C 	C 	0.38825 0.95533 0.48715 -0.10700
C 	C 	0.95118 0.23410 0.41406 -0.00800
C 	C 	0.48001 0.32853 0.94357 -0.09900
C 	C 	0.15509 0.55207 0.29959 0.01500
C 	C 	0.08336 0.54376 0.31354 -0.03000
C 	C 	0.06742 0.55386 0.14392 0.02100
C 	C 	0.88825 0.98715 0.45533 -0.10300
C 	C 	0.54882 0.09934 0.08594 -0.00600
C 	C 	0.85702 0.39876 0.46582 -0.40800
C 	C 	0.94357 0.48001 0.32853 -0.09900
C 	C 	0.14392 0.55386 0.23480 0.02200
C 	C 	0.72160 0.53418 0.60124 -0.40900
C 	C 	0.69022 0.05576 0.60838 0.01100
C 	C 	0.86601 0.75563 0.40435 0.03500
C 	C 	0.77840 0.35702 0.89876 -0.40900
C 	C 	0.67258 0.60548 0.95906 -0.39500
C 	C 	0.35608 0.43258 0.26520 0.02200
C 	C 	0.40435 0.75563 0.97401 0.03500
C 	C 	0.72160 0.60124 0.14298 -0.40800
C 	C 	0.23496 0.99674 0.43808 0.03000
C 	C 	0.89876 0.96582 0.77840 -0.40900
C 	C 	0.14564 0.55576 0.10838 0.01100
C 	C 	0.82742 0.54094 0.89452 -0.39800
C 	C 	0.91406 0.90066 0.73410 -0.00500
C 	C 	0.68739 0.65083 0.60561 -0.04000
C 	C 	0.05066 0.63604 0.57228 -0.04200
C 	C 	0.18646 0.44066 0.95624 -0.03000
C 	C 	0.04094 0.39452 0.23712 -0.39400
C 	C 	0.45624 0.94066 0.68646 -0.03100
C 	C 	0.54094 0.89452 0.82742 -0.39800
C 	C 	0.24789 0.32853 0.48001 -0.09900
C 	C 	0.55386 0.14392 0.06742 0.02100
C 	C 	0.53698 0.09664 0.98384 0.33000
C 	C 	0.75563 0.97401 0.40435 0.03500
C 	C 	0.66927 0.98715 0.88825 -0.10100
C 	C 	0.99674 0.23496 0.33022 0.02800
C 	C 	0.76504 0.56192 0.66978 0.03400
C 	C 	0.16978 0.06192 0.26504 0.03400
C 	C 	0.67147 0.51999 0.75211 -0.09900
C 	C 	0.65509 0.49325 0.79959 0.01500
C 	C 	0.46582 0.85702 0.39876 -0.40800
C 	C 	0.04882 0.76590 0.58594 -0.00800
C 	C 	0.60124 0.14298 0.72160 -0.40800
C 	C 	0.56192 0.76504 0.00326 0.03000
C 	C 	0.23712 0.04094 0.39452 -0.39400
C 	C 	0.09934 0.08594 0.54882 -0.00600
C 	C 	0.15083 0.55617 0.18739 -0.04000
C 	C 	0.36396 0.25898 0.42772 -0.04300
C 	C 	0.32742 0.04094 0.23712 -0.39300
C 	C 	0.79959 0.49325 0.05207 0.01600
C 	C 	0.44066 0.18646 0.41664 -0.03000
C 	C 	0.57228 0.05066 0.63604 -0.04200
C 	C 	0.46302 0.90336 0.01616 0.33000
C 	C 	0.90435 0.25563 0.36601 0.03400
C 	C 	0.33022 0.23496 0.43808 0.03400
C 	C 	0.35702 0.77840 0.96582 -0.40800
C 	C 	0.50675 0.34491 0.94793 0.01500
C 	C 	0.95533 0.48715 0.38825 -0.10700
C 	C 	0.94793 0.50675 0.34491 0.01500
C 	C 	0.48001 0.94357 0.24789 -0.09900
C 	C 	0.83022 0.93808 0.73496 0.03400
C 	C 	0.26288 0.10548 0.45906 -0.39800
C 	C 	0.30978 0.35436 0.94424 0.01100
C 	C 	0.51285 0.04467 0.83073 -0.10700
C 	C 	0.91406 0.45118 0.90066 -0.00600
C 	C 	0.74437 0.52599 0.63399 0.03500
C 	C 	0.81261 0.44383 0.89439 -0.04000
C 	C 	0.63604 0.74102 0.57228 -0.04300
C 	C 	0.01616 0.61746 0.46302 0.33200
C 	C 	0.02599 0.24437 0.13399 0.03500
C 	C 	0.17147 0.25211 0.01999 -0.09400
C 	C 	0.34491 0.20041 0.94793 0.01500
C 	C 	0.86396 0.44934 0.92772 -0.04300
C 	C 	0.34491 0.50675 0.20041 0.01500
C 	C 	0.14564 0.10838 0.19022 0.01100
C 	C 	0.10548 0.45906 0.26288 -0.39800
C 	C 	0.61175 0.51285 0.83073 -0.10700
C 	C 	0.13604 0.07228 0.24102 -0.04400
C 	C 	0.19022 0.10838 0.55576 0.01100
C 	C 	0.51285 0.83073 0.61175 -0.10700
C 	C 	0.55617 0.15083 0.10561 -0.04000
C 	C 	0.69022 0.64564 0.05576 0.01100
C 	C 	0.14298 0.60124 0.53418 -0.40800
C 	C 	0.39876 0.85702 0.27840 -0.40800
C 	C 	0.73410 0.45118 0.91406 -0.00700
C 	C 	0.60548 0.67258 0.76288 -0.39800
C 	C 	0.53418 0.60124 0.72160 -0.40900
C 	C 	0.81354 0.55934 0.04376 -0.03000
C 	C 	0.00326 0.76504 0.66978 0.02800
C 	C 	0.24789 0.94357 0.32853 -0.09900
C 	C 	0.79959 0.65509 0.49325 0.01500
C 	C 	0.05934 0.31354 0.54376 -0.03100
C 	C 	0.32742 0.39452 0.04094 -0.39500
C 	C 	0.61746 0.01616 0.90336 0.32800
C 	C 	0.05617 0.68739 0.60561 -0.04000
C 	C 	0.45906 0.10548 0.17258 -0.39800
C 	C 	0.31261 0.39439 0.94383 -0.04000
C 	C 	0.43808 0.33022 0.23496 0.03400
C 	C 	0.86396 0.75898 0.44934 -0.04300
C 	C 	0.45906 0.17258 0.26288 -0.39800
C 	C 	0.44383 0.81261 0.84917 -0.04000
C 	C 	0.09934 0.54882 0.26590 -0.00700
C 	C 	0.79959 0.05207 0.65509 0.01500
C 	C 	0.33022 0.43808 0.99674 0.03100
C 	C 	0.44793 0.84491 0.00675 0.01100
C 	C 	0.39162 0.94424 0.35436 0.01100
C 	C 	0.05934 0.54376 0.08336 -0.03200
C 	C 	0.39439 0.31261 0.34917 -0.04000
C 	C 	0.39876 0.46582 0.85702 -0.40800
C 	C 	0.73480 0.64392 0.56742 0.02200
C 	C 	0.59565 0.02599 0.13399 0.03500
C 	C 	0.13604 0.24102 0.55066 -0.04300
C 	C 	0.17147 0.01999 0.55643 -0.09600
C 	C 	0.39439 0.34917 0.94383 -0.04000
C 	C 	0.93258 0.44614 0.85608 0.02100
C 	C 	0.82853 0.74789 0.98001 -0.09400
C 	C 	0.17258 0.45906 0.10548 -0.39800
C 	C 	0.36396 0.94934 0.25898 -0.04200
C 	C 	0.89876 0.77840 0.35702 -0.40900
C 	C 	0.13399 0.02599 0.24437 0.03500
C 	C 	0.46302 0.01616 0.61746 0.33200
C 	C 	0.73496 0.93808 0.49674 0.03400
C 	C 	0.06742 0.14392 0.23480 0.02000
C 	C 	0.74789 0.98001 0.82853 -0.09400
C 	C 	0.52599 0.63399 0.74437 0.03500
C 	C 	0.65083 0.05617 0.60561 -0.04000
C 	C 	0.38825 0.48715 0.16927 -0.10700
C 	C 	0.86601 0.97401 0.75563 0.03500
C 	C 	0.95533 0.38825 0.16927 -0.10700
C 	C 	0.99325 0.55207 0.15509 0.01100
C 	C 	0.25563 0.90435 0.47401 0.03400
C 	C 	0.53418 0.72160 0.14298 -0.40800
C 	C 	0.44934 0.86396 0.75898 -0.04300
C 	C 	0.63399 0.09565 0.74437 0.03400
C 	C 	0.94383 0.31261 0.39439 -0.04000
C 	C 	0.05207 0.65509 0.79959 0.01500
C 	C 	0.53698 0.98384 0.38254 0.33200
C 	C 	0.82853 0.98001 0.44357 -0.09600
C 	C 	0.76504 0.00326 0.56192 0.03000
C 	C 	0.64564 0.69022 0.60838 0.01200
C 	C 	0.06742 0.23480 0.55386 0.02100
C 	C 	0.90066 0.73410 0.91406 -0.00500
C 	C 	0.07228 0.13604 0.55066 -0.04300
C 	C 	0.23480 0.14392 0.55386 0.02200
C 	C 	0.49674 0.73496 0.93808 0.03400
C 	C 	0.64564 0.60838 0.05576 0.01100
C 	C 	0.76288 0.95906 0.60548 -0.39400
C 	C 	0.16978 0.26504 0.50326 0.03400
C 	C 	0.01999 0.55643 0.17147 -0.09600
C 	C 	0.01285 0.54467 0.11175 -0.10300
C 	C 	0.23712 0.39452 0.32742 -0.39800
C 	C 	0.70041 0.84491 0.44793 0.01500
C 	C 	0.01999 0.17147 0.25211 -0.09400
C 	C 	0.60124 0.72160 0.53418 -0.40900
C 	C 	0.43808 0.23496 0.99674 0.03000
C 	C 	0.90066 0.91406 0.45118 -0.00600
C 	C 	0.74789 0.82853 0.44357 -0.09900
C 	C 	0.38254 0.09664 0.53698 0.33200
C 	C 	0.42772 0.25898 0.94934 -0.04200
C 	C 	0.56742 0.64392 0.05386 0.02200
C 	C 	0.48715 0.16927 0.38825 -0.10700
C 	C 	0.75211 0.67147 0.51999 -0.09900
C 	C 	0.95118 0.41406 0.40066 -0.00800
C 	C 	0.68739 0.05617 0.65083 -0.04000
C 	C 	0.44614 0.93258 0.76520 0.02100
C 	C 	0.96302 0.51616 0.40336 0.33200
C 	C 	0.08336 0.31354 0.05934 -0.03400
C 	C 	0.54094 0.73712 0.89452 -0.39800
C 	C 	0.05576 0.69022 0.64564 0.01100
C 	C 	0.32742 0.23712 0.39452 -0.39800
C 	C 	0.51285 0.61175 0.04467 -0.10700
C 	C 	0.70041 0.00675 0.84491 0.00800
C 	C 	0.89439 0.44383 0.84917 -0.04000
C 	C 	0.94614 0.43258 0.35608 0.02200
C 	C 	0.46582 0.39876 0.27840 -0.40900
C 	C 	0.44614 0.76520 0.85608 0.02200
C 	C 	0.81354 0.04376 0.58336 -0.03000
C 	C 	0.03698 0.88254 0.48384 0.33200
C 	C 	0.27840 0.39876 0.85702 -0.40800
C 	C 	0.93808 0.73496 0.83022 0.03400
C 	C 	0.55066 0.13604 0.24102 -0.04300
C 	C 	0.59565 0.24437 0.02599 0.03500
C 	C 	0.75563 0.86601 0.97401 0.03500
C 	C 	0.67147 0.75211 0.05643 -0.09900
C 	C 	0.13604 0.55066 0.07228 -0.04300
C 	C 	0.55066 0.24102 0.07228 -0.04300
C 	C 	0.35436 0.39162 0.94424 0.01100
C 	C 	0.00675 0.44793 0.84491 0.01100
C 	C 	0.45118 0.73410 0.90066 -0.00700
C 	C 	0.76520 0.44614 0.93258 0.02100
C 	C 	0.80978 0.89162 0.44424 0.01100
C 	C 	0.96582 0.89876 0.35702 -0.40900
C 	C 	0.47401 0.36601 0.25563 0.03500
C 	C 	0.44424 0.85436 0.80978 0.01200
C 	C 	0.54376 0.31354 0.08336 -0.03000
C 	C 	0.95906 0.76288 0.67258 -0.39300
C 	C 	0.49674 0.93808 0.83022 0.03400
C 	C 	0.89162 0.44424 0.80978 0.01100
C 	C 	0.10548 0.26288 0.17258 -0.39800
C 	C 	0.29959 0.55207 0.99325 0.01400
C 	C 	0.44934 0.92772 0.86396 -0.04300
C 	C 	0.54467 0.33073 0.11175 -0.10700
C 	C 	0.86601 0.40435 0.97401 0.03500
C 	C 	0.74437 0.63399 0.09565 0.03400
C 	C 	0.40435 0.86601 0.75563 0.03500
C 	C 	0.32853 0.94357 0.48001 -0.09900
C 	C 	0.97401 0.75563 0.86601 0.03500
C 	C 	0.51999 0.75211 0.67147 -0.09900
C 	C 	0.55386 0.06742 0.23480 0.02100
C 	C 	0.39452 0.23712 0.04094 -0.39400
C 	C 	0.44424 0.80978 0.89162 0.01100
C 	C 	0.24102 0.55066 0.13604 -0.04300
C 	C 	0.75563 0.40435 0.86601 0.03500
C 	C 	0.33073 0.01285 0.11175 -0.10100
C 	C 	0.66978 0.56192 0.00326 0.03100
C 	C 	0.32853 0.24789 0.94357 -0.09900
C 	C 	0.31354 0.05934 0.08336 -0.03400
C 	C 	0.03418 0.10124 0.64298 -0.40900
C 	C 	0.63399 0.52599 0.09565 0.03400
C 	C 	0.04376 0.58336 0.81354 -0.03000
C 	C 	0.95624 0.44066 0.41664 -0.03000
C 	C 	0.05643 0.67147 0.75211 -0.09900
C 	C 	0.60561 0.68739 0.65083 -0.04000
C 	C 	0.33073 0.54467 0.01285 -0.10500
C 	C 	0.04467 0.83073 0.51285 -0.10700
C 	C 	0.05934 0.08336 0.31354 -0.03400
C 	C 	0.94614 0.26520 0.43258 0.02200
C 	C 	0.31354 0.08336 0.54376 -0.03000
C 	C 	0.48715 0.95533 0.16927 -0.10700
C 	C 	0.59664 0.48384 0.88254 0.33200
C 	C 	0.84917 0.44383 0.81261 -0.04000
C 	C 	0.85436 0.44424 0.89162 0.01100
C 	C 	0.44383 0.84917 0.89439 -0.04000
C 	C 	0.25898 0.94934 0.42772 -0.04200
C 	C 	0.13399 0.59565 0.02599 0.03500
C 	C 	0.83022 0.49674 0.93808 0.03400
C 	C 	0.63604 0.57228 0.05066 -0.04200
C 	C 	0.10124 0.22160 0.64298 -0.40900
C 	C 	0.55934 0.04376 0.81354 -0.03000
C 	C 	0.68739 0.60561 0.05617 -0.04000
C 	C 	0.64392 0.05386 0.56742 0.02200
C 	C 	0.60838 0.64564 0.69022 0.01200
C 	C 	0.54094 0.82742 0.73712 -0.39800
C 	C 	0.31261 0.34917 0.39439 -0.04000
C 	C 	0.06192 0.16978 0.50326 0.03400
C 	C 	0.84491 0.44793 0.70041 0.01500
C 	C 	0.74102 0.63604 0.05066 -0.04200
C 	C 	0.75898 0.92772 0.44934 -0.04300
C 	C 	0.74437 0.09565 0.52599 0.03400
C 	C 	0.47401 0.25563 0.90435 0.03400
C 	C 	0.73480 0.56742 0.05386 0.02200
C 	C 	0.94793 0.34491 0.20041 0.01500
C 	C 	0.05066 0.74102 0.63604 -0.04200
C 	C 	0.60838 0.69022 0.05576 0.01100
C 	C 	0.43258 0.94614 0.26520 0.02200
C 	C 	0.45533 0.88825 0.98715 -0.10300
C 	C 	0.91664 0.68646 0.94066 -0.03400
C 	C 	0.75898 0.44934 0.86396 -0.04300
C 	C 	0.05576 0.64564 0.60838 0.01100
C 	C 	0.11746 0.40336 0.51616 0.33200
C 	C 	0.51616 0.40336 0.96302 0.33200
C 	C 	0.20041 0.94793 0.34491 0.01500
C 	C 	0.36601 0.47401 0.90435 0.03400
C 	C 	0.64298 0.10124 0.22160 -0.40900
C 	C 	0.05386 0.64392 0.73480 0.02200
C 	C 	0.57228 0.74102 0.05066 -0.04200
C 	C 	0.98715 0.88825 0.66927 -0.10100
C 	C 	0.66978 0.00326 0.76504 0.02800
C 	C 	0.55576 0.19022 0.10838 0.01100
C 	C 	0.30978 0.39162 0.35436 0.01200
C 	C 	0.01616 0.90336 0.61746 0.32800
C 	C 	0.31354 0.54376 0.05934 -0.03100
C 	C 	0.18646 0.41664 0.44066 -0.03000
C 	C 	0.89876 0.35702 0.96582 -0.40900
C 	C 	0.30978 0.94424 0.39162 0.01100
C 	C 	0.85608 0.93258 0.44614 0.02100
C 	C 	0.75211 0.51999 0.05643 -0.09900
C 	C 	0.08594 0.09934 0.26590 -0.00500
C 	C 	0.45533 0.66927 0.88825 -0.10700
C 	C 	0.55576 0.10838 0.14564 0.01100
C 	C 	0.58336 0.04376 0.55934 -0.03000
C 	C 	0.91664 0.45624 0.68646 -0.03000
C 	C 	0.26520 0.94614 0.35608 0.02200
C 	C 	0.55207 0.99325 0.29959 0.01400
C 	C 	0.49325 0.65509 0.05207 0.01500
C 	C 	0.54467 0.01285 0.33073 -0.10500
C 	C 	0.16927 0.38825 0.48715 -0.10700
C 	C 	0.40066 0.95118 0.41406 -0.00800
C 	C 	0.98384 0.09664 0.38254 0.32800
C 	C 	0.40435 0.97401 0.86601 0.03500
C 	C 	0.88254 0.48384 0.03698 0.33200
C 	C 	0.44793 0.00675 0.70041 0.01400
C 	C 	0.16927 0.48715 0.95533 -0.10700
C 	C 	0.94934 0.25898 0.36396 -0.04200
C 	C 	0.05617 0.60561 0.65083 -0.04000
C 	C 	0.04094 0.32742 0.39452 -0.39500
C 	C 	0.01999 0.25211 0.55643 -0.09700
C 	C 	0.98715 0.66927 0.45533 -0.10500
C 	C 	0.94066 0.91664 0.68646 -0.03400
C 	C 	0.95906 0.60548 0.76288 -0.39400
C 	C 	0.98001 0.74789 0.44357 -0.09700
C 	C 	0.06192 0.26504 0.16978 0.03400
C 	C 	0.99674 0.43808 0.23496 0.03000
C 	C 	0.41664 0.44066 0.18646 -0.03000
C 	C 	0.35436 0.94424 0.30978 0.01100
C 	C 	0.95624 0.41664 0.18646 -0.03000
C 	C 	0.09565 0.74437 0.63399 0.03400
C 	C 	0.55643 0.25211 0.17147 -0.09900
C 	C 	0.85608 0.76520 0.93258 0.02000
C 	C 	0.98715 0.45533 0.88825 -0.10300
C 	C 	0.39452 0.32742 0.23712 -0.39800
C 	C 	0.56192 0.00326 0.66978 0.03100
C 	C 	0.38254 0.98384 0.09664 0.32800
C 	C 	0.26504 0.06192 0.50326 0.03400
C 	C 	0.05207 0.49325 0.65509 0.01500
C 	C 	0.94934 0.42772 0.25898 -0.04200
C 	C 	0.54376 0.08336 0.05934 -0.03200
C 	C 	0.43258 0.35608 0.94614 0.02200
C 	C 	0.04467 0.51285 0.61175 -0.10700
C 	C 	0.40066 0.23410 0.95118 -0.00800
C 	C 	0.45624 0.68646 0.91664 -0.03000
C 	C 	0.96582 0.77840 0.89876 -0.40900
C 	C 	0.50326 0.06192 0.16978 0.03400
C 	C 	0.58594 0.59934 0.04882 -0.00800
C 	C 	0.07228 0.24102 0.13604 -0.04400
C 	C 	0.83073 0.51285 0.04467 -0.10700
C 	C 	0.23480 0.06742 0.14392 0.02000
C 	C 	0.50326 0.16978 0.26504 0.03400
C 	C 	0.64392 0.73480 0.05386 0.02200
C 	C 	0.05386 0.73480 0.56742 0.02200
C 	C 	0.44357 0.74789 0.82853 -0.09900
C 	C 	0.43258 0.26520 0.35608 0.02200
C 	C 	0.98384 0.53698 0.09664 0.33000
C 	C 	0.60838 0.05576 0.64564 0.01100
C 	C 	0.64392 0.56742 0.73480 0.02200
C 	C 	0.94424 0.35436 0.39162 0.01100
C 	C 	0.52599 0.74437 0.09565 0.03400
C 	C 	0.83073 0.61175 0.51285 -0.10700
C 	C 	0.90336 0.46302 0.61746 0.33200
C 	C 	0.24102 0.13604 0.07228 -0.04400
C 	C 	0.77840 0.89876 0.96582 -0.40900
C 	C 	0.73712 0.82742 0.89452 -0.39800
C 	C 	0.29959 0.99325 0.15509 0.00800
C 	C 	0.19022 0.14564 0.10838 0.01100
C 	C 	0.72160 0.14298 0.53418 -0.40800
C 	C 	0.25898 0.42772 0.36396 -0.04300
C 	C 	0.95533 0.16927 0.48715 -0.10700
C 	C 	0.88825 0.45533 0.66927 -0.10700
C 	C 	0.05207 0.79959 0.49325 0.01600
C 	C 	0.96302 0.40336 0.11746 0.33200
C 	C 	0.76590 0.58594 0.04882 -0.00800
C 	C 	0.48384 0.88254 0.59664 0.33200
C 	C 	0.50675 0.20041 0.34491 0.01500
C 	C 	0.56742 0.05386 0.73480 0.02200
C 	C 	0.26288 0.17258 0.10548 -0.39800
C 	C 	0.46582 0.27840 0.85702 -0.40800
C 	C 	0.95624 0.18646 0.44066 -0.03000
C 	C 	0.58336 0.81354 0.04376 -0.03000
C 	C 	0.26504 0.16978 0.06192 0.03400
C 	C 	0.35436 0.30978 0.39162 0.01200
C 	C 	0.46302 0.61746 0.90336 0.33200
C 	C 	0.03418 0.64298 0.22160 -0.40800
C 	C 	0.08336 0.05934 0.54376 -0.03200
C 	C 	0.23410 0.40066 0.41406 -0.00700
C 	C 	0.56192 0.66978 0.76504 0.03400
C 	C 	0.57228 0.63604 0.74102 -0.04300
C 	C 	0.89452 0.54094 0.73712 -0.39800
C 	C 	0.51999 0.05643 0.75211 -0.09900
C 	C 	0.55207 0.15509 0.99325 0.01100
C 	C 	0.45533 0.98715 0.66927 -0.10500
C 	C 	0.26520 0.43258 0.94614 0.02200
C 	C 	0.49325 0.79959 0.65509 0.01500
C 	C 	0.42772 0.36396 0.25898 -0.04300
C 	C 	0.58594 0.76590 0.59934 -0.00700
C 	C 	0.88825 0.66927 0.98715 -0.10100
C 	C 	0.25211 0.17147 0.55643 -0.09900
C 	C 	0.23496 0.43808 0.33022 0.03400
C 	C 	0.54882 0.08594 0.26590 -0.00700
C 	C 	0.10838 0.55576 0.19022 0.01100
C 	C 	0.48715 0.38825 0.95533 -0.10700
C 	C 	0.35702 0.96582 0.89876 -0.40900
C 	C 	0.55617 0.10561 0.18739 -0.04000
C 	C 	0.59934 0.04882 0.58594 -0.00800
C 	C 	0.33022 0.99674 0.23496 0.02800
C 	C 	0.84917 0.81261 0.89439 -0.03900
C 	C 	0.03698 0.48384 0.59664 0.33200
C 	C 	0.61175 0.04467 0.51285 -0.10700
C 	C 	0.25211 0.01999 0.17147 -0.09400
C 	C 	0.04882 0.59934 0.76590 -0.00800
C 	C 	0.23410 0.41406 0.95118 -0.00800
C 	C 	0.92772 0.44934 0.75898 -0.04300
C 	C 	0.75898 0.86396 0.92772 -0.04400
C 	C 	0.26590 0.08594 0.09934 -0.00500
C 	C 	0.49674 0.83022 0.73496 0.03400
C 	C 	0.13399 0.24437 0.59565 0.03500
C 	C 	0.33073 0.11175 0.54467 -0.10700
C 	C 	0.17258 0.26288 0.45906 -0.39800
C 	C 	0.49325 0.05207 0.79959 0.01600
C 	C 	0.94383 0.34917 0.31261 -0.04000
C 	C 	0.29959 0.15509 0.55207 0.01500
C 	C 	0.55934 0.81354 0.58336 -0.03000
C 	C 	0.64564 0.05576 0.69022 0.01100
C 	C 	0.27840 0.85702 0.46582 -0.40800
C 	C 	0.03418 0.22160 0.10124 -0.40900
C 	C 	0.76288 0.60548 0.67258 -0.39800
C 	C 	0.10838 0.19022 0.14564 0.01100
C 	C 	0.05643 0.51999 0.67147 -0.09900
C 	C 	0.94357 0.24789 0.48001 -0.09900
C 	C 	0.26590 0.09934 0.54882 -0.00700
C 	C 	0.60124 0.53418 0.14298 -0.40800
C 	C 	0.95118 0.40066 0.23410 -0.00800
C 	C 	0.51616 0.96302 0.11746 0.33200
C 	C 	0.73480 0.05386 0.64392 0.02200
C 	C 	0.40336 0.11746 0.96302 0.33200
C 	C 	0.39452 0.04094 0.32742 -0.39500
C 	C 	0.39439 0.94383 0.31261 -0.04000
C 	C 	0.34491 0.94793 0.50675 0.01500
C 	C 	0.26590 0.54882 0.08594 -0.00700
C 	C 	0.23410 0.95118 0.40066 -0.00800
C 	C 	0.98001 0.82853 0.74789 -0.09400
C 	C 	0.97401 0.86601 0.40435 0.03500
C 	C 	0.02599 0.13399 0.59565 0.03500
C 	C 	0.76590 0.04882 0.59934 -0.00800
C 	C 	0.34917 0.39439 0.31261 -0.04000
C 	C 	0.44357 0.98001 0.74789 -0.09700
C 	C 	0.45624 0.91664 0.94066 -0.03200
C 	C 	0.23496 0.33022 0.99674 0.02800
C 	C 	0.41664 0.95624 0.44066 -0.03000
C 	C 	0.22160 0.64298 0.10124 -0.40900
C 	C 	0.67258 0.95906 0.76288 -0.39300
C 	C 	0.59934 0.76590 0.04882 -0.00800
C 	C 	0.50675 0.94793 0.20041 0.01600
C 	C 	0.70041 0.44793 0.00675 0.01400
C 	C 	0.05386 0.56742 0.64392 0.02200
C 	C 	0.73410 0.91406 0.90066 -0.00500
C 	C 	0.18646 0.95624 0.41664 -0.03000
C 	C 	0.04094 0.23712 0.32742 -0.39300
C 	C 	0.89162 0.80978 0.85436 0.01100
C 	C 	0.01285 0.11175 0.33073 -0.10100
C 	C 	0.88254 0.59664 0.48384 0.33200
C 	C 	0.65083 0.60561 0.68739 -0.04000
C 	C 	0.76288 0.67258 0.95906 -0.39300
C 	C 	0.55934 0.58336 0.04376 -0.03000
C 	C 	0.15083 0.18739 0.10561 -0.03900
C 	C 	0.05617 0.65083 0.68739 -0.04000
C 	C 	0.24437 0.13399 0.02599 0.03500
C 	C 	0.45118 0.90066 0.91406 -0.00600
C 	C 	0.09664 0.38254 0.98384 0.32800
C 	C 	0.80978 0.85436 0.89162 0.01100
C 	C 	0.41664 0.18646 0.95624 -0.03000
C 	C 	0.98001 0.44357 0.82853 -0.09600
C 	C 	0.86396 0.92772 0.75898 -0.04400
C 	C 	0.60548 0.95906 0.67258 -0.39500
C 	C 	0.76590 0.59934 0.58594 -0.00700
C 	C 	0.94066 0.45624 0.91664 -0.03200
C 	C 	0.66978 0.76504 0.56192 0.03400
C 	C 	0.80978 0.44424 0.85436 0.01200
C 	C 	0.10561 0.55617 0.15083 -0.04000
C 	C 	0.10124 0.03418 0.22160 -0.40900
C 	C 	0.85702 0.27840 0.39876 -0.40800
C 	C 	0.17258 0.10548 0.26288 -0.39800
C 	C 	0.67147 0.05643 0.51999 -0.09900
C 	C 	0.36601 0.90435 0.25563 0.03400
C 	C 	0.41406 0.95118 0.23410 -0.00800
C 	C 	0.17147 0.55643 0.25211 -0.09900
C 	C 	0.65083 0.68739 0.05617 -0.04000
C 	C 	0.39876 0.27840 0.46582 -0.40900
C 	C 	0.35608 0.26520 0.94614 0.02200
C 	C 	0.20041 0.34491 0.50675 0.01500
C 	C 	0.73410 0.90066 0.45118 -0.00700
C 	C 	0.98384 0.38254 0.53698 0.33200
C 	C 	0.90336 0.01616 0.46302 0.33000
C 	C 	0.93258 0.76520 0.44614 0.02100
C 	C 	0.25563 0.36601 0.90435 0.03400
C 	C 	0.76520 0.93258 0.85608 0.02000
C 	C 	0.85608 0.44614 0.76520 0.02200
C 	C 	0.90066 0.45118 0.73410 -0.00700
C 	C 	0.85436 0.89162 0.80978 0.01100
C 	C 	0.59664 0.88254 0.03698 0.33200
C 	C 	0.68646 0.91664 0.45624 -0.03000
C 	C 	0.48384 0.03698 0.88254 0.33200
C 	C 	0.84491 0.70041 0.00675 0.00800
C 	C 	0.34917 0.94383 0.39439 -0.04000
C 	C 	0.44066 0.95624 0.18646 -0.03000
C 	C 	0.08594 0.54882 0.09934 -0.00600
C 	C 	0.66927 0.88825 0.45533 -0.10700
C 	C 	0.66927 0.45533 0.98715 -0.10500
C 	C 	0.10838 0.14564 0.55576 0.01100
O 	O 	0.96958 0.44340 0.08924 -0.50500
O 	O 	0.44311 0.89799 0.62409 -0.40800
O 	O 	0.60201 0.46519 0.05689 -0.40800
O 	O 	0.03042 0.50222 0.55660 -0.50500
O 	O 	0.12409 0.53481 0.39799 -0.40800
O 	O 	0.03481 0.89799 0.44311 -0.40800
O 	O 	0.53042 0.05660 0.00222 -0.50400
O 	O 	0.05660 0.53042 0.41076 -0.50500
O 	O 	0.46519 0.60201 0.87591 -0.40800
O 	O 	0.44340 0.08924 0.96958 -0.50500
O 	O 	0.91076 0.55660 0.50222 -0.50500
O 	O 	0.99778 0.46958 0.94340 -0.50400
O 	O 	0.03042 0.55660 0.91076 -0.50500
O 	O 	0.91076 0.03042 0.55660 -0.50500
O 	O 	0.96519 0.55689 0.37591 -0.40800
O 	O 	0.39799 0.12409 0.53481 -0.40800
O 	O 	0.12409 0.39799 0.94311 -0.40700
O 	O 	0.41076 0.00222 0.05660 -0.50300
O 	O 	0.50222 0.55660 0.03042 -0.50500
O 	O 	0.55660 0.03042 0.50222 -0.50500
O 	O 	0.49778 0.96958 0.08924 -0.50500
O 	O 	0.05689 0.46519 0.87591 -0.40700
O 	O 	0.00222 0.53042 0.05660 -0.50400
O 	O 	0.46958 0.99778 0.58924 -0.50500
O 	O 	0.46519 0.87591 0.05689 -0.40700
O 	O 	0.96958 0.49778 0.44340 -0.50500
O 	O 	0.00222 0.41076 0.53042 -0.50500
O 	O 	0.44340 0.49778 0.08924 -0.50500
O 	O 	0.53481 0.12409 0.94311 -0.40700
O 	O 	0.53481 0.39799 0.12409 -0.40800
O 	O 	0.03481 0.44311 0.62409 -0.40800
O 	O 	0.62409 0.03481 0.44311 -0.40800
O 	O 	0.62409 0.44311 0.89799 -0.40800
O 	O 	0.37591 0.10201 0.96519 -0.40800
O 	O 	0.55689 0.96519 0.10201 -0.40800
O 	O 	0.55689 0.10201 0.37591 -0.40800
O 	O 	0.94340 0.58924 0.99778 -0.50300
O 	O 	0.49778 0.08924 0.44340 -0.50500
O 	O 	0.05689 0.60201 0.46519 -0.40800
O 	O 	0.89799 0.03481 0.62409 -0.40800
O 	O 	0.08924 0.49778 0.96958 -0.50500
O 	O 	0.10201 0.96519 0.37591 -0.40800
O 	O 	0.89799 0.62409 0.44311 -0.40800
O 	O 	0.41076 0.53042 0.00222 -0.50500
O 	O 	0.44311 0.62409 0.03481 -0.40800
O 	O 	0.87591 0.46519 0.60201 -0.40800
O 	O 	0.55689 0.37591 0.96519 -0.40800
O 	O 	0.55660 0.91076 0.03042 -0.50500
O 	O 	0.99778 0.58924 0.46958 -0.50500
O 	O 	0.46519 0.05689 0.60201 -0.40800
O 	O 	0.53042 0.41076 0.05660 -0.50500
O 	O 	0.94311 0.12409 0.39799 -0.40700
O 	O 	0.62409 0.89799 0.03481 -0.40800
O 	O 	0.94340 0.46958 0.58924 -0.50500
O 	O 	0.10201 0.55689 0.96519 -0.40800
O 	O 	0.37591 0.96519 0.55689 -0.40800
O 	O 	0.94311 0.53481 0.12409 -0.40700
O 	O 	0.46958 0.58924 0.94340 -0.50500
O 	O 	0.58924 0.46958 0.99778 -0.50500
O 	O 	0.10201 0.37591 0.55689 -0.40800
O 	O 	0.39799 0.53481 0.94311 -0.40800
O 	O 	0.50222 0.03042 0.91076 -0.50500
O 	O 	0.96519 0.37591 0.10201 -0.40800
O 	O 	0.94311 0.39799 0.53481 -0.40800
O 	O 	0.94340 0.99778 0.46958 -0.50400
O 	O 	0.60201 0.05689 0.87591 -0.40700
O 	O 	0.05660 0.41076 0.00222 -0.50300
O 	O 	0.58924 0.94340 0.46958 -0.50500
O 	O 	0.89799 0.44311 0.03481 -0.40800
O 	O 	0.60201 0.87591 0.46519 -0.40800
O 	O 	0.05660 0.00222 0.53042 -0.50400
O 	O 	0.39799 0.94311 0.12409 -0.40700
O 	O 	0.00222 0.05660 0.41076 -0.50300
O 	O 	0.44340 0.96958 0.49778 -0.50500
O 	O 	0.03042 0.91076 0.50222 -0.50500
O 	O 	0.44311 0.03481 0.89799 -0.40800
O 	O 	0.53481 0.94311 0.39799 -0.40800
O 	O 	0.91076 0.50222 0.03042 -0.50500
O 	O 	0.46958 0.94340 0.99778 -0.50400
O 	O 	0.96519 0.10201 0.55689 -0.40800
O 	O 	0.49778 0.44340 0.96958 -0.50500
O 	O 	0.87591 0.05689 0.46519 -0.40700
O 	O 	0.08924 0.44340 0.49778 -0.50500
O 	O 	0.53042 0.00222 0.41076 -0.50500
O 	O 	0.96958 0.08924 0.49778 -0.50500
O 	O 	0.58924 0.99778 0.94340 -0.50300
O 	O 	0.55660 0.50222 0.91076 -0.50500
O 	O 	0.37591 0.55689 0.10201 -0.40800
O 	O 	0.08924 0.96958 0.44340 -0.50500
O 	O 	0.12409 0.94311 0.53481 -0.40700
O 	O 	0.99778 0.94340 0.58924 -0.50300
O 	O 	0.03481 0.62409 0.89799 -0.40800
O 	O 	0.87591 0.60201 0.05689 -0.40700
O 	O 	0.50222 0.91076 0.55660 -0.50500
O 	O 	0.05689 0.87591 0.60201 -0.40700
O 	O 	0.41076 0.05660 0.53042 -0.50500
