data_ABEFUL_clean

_audit_creation_method RASPA-1.0
_audit_creation_date 2022-6-18
_audit_author_name 'Xiaoqi Zhang'

_cell_length_a    15.3873
_cell_length_b    15.3873
_cell_length_c    9.8379
_cell_angle_alpha 90
_cell_angle_beta  90
_cell_angle_gamma 90
_cell_volume      27951.7

_symmetry_cell_setting          triclinic
_symmetry_space_group_name_Hall 'P 1'
_symmetry_space_group_name_H-M  'P 1'
_symmetry_Int_Tables_number     1

_symmetry_equiv_pos_as_xyz 'x,y,z'

loop_
_atom_site_label
_atom_site_type_symbol
_atom_site_fract_x
_atom_site_fract_y
_atom_site_fract_z
_atom_site_charge
C        C      0.193485000000     0.122505000000     0.040733333333    -0.201      
C        C      0.156135000000     0.097590000000     0.040633333333    -0.201      
C        C      0.306515000000     0.377495000000     0.040733333333    -0.201      
C        C      0.343865000000     0.402410000000     0.040633333333    -0.201      
C        C      0.377495000000     0.193485000000     0.040733333333    -0.201      
C        C      0.402410000000     0.156135000000     0.040633333333    -0.201      
C        C      0.122505000000     0.306515000000     0.040733333333    -0.201      
C        C      0.097590000000     0.343865000000     0.040633333333    -0.201      
C        C      0.306515000000     0.122505000000     0.125933333333    -0.201      
C        C      0.343865000000     0.097590000000     0.126033333333    -0.201      
C        C      0.193485000000     0.377495000000     0.125933333333    -0.201      
C        C      0.156135000000     0.402410000000     0.126033333333    -0.201      
C        C      0.122505000000     0.193485000000     0.125933333333    -0.201      
C        C      0.097590000000     0.156135000000     0.126033333333    -0.201      
C        C      0.377495000000     0.306515000000     0.125933333333    -0.201      
C        C      0.402410000000     0.343865000000     0.126033333333    -0.201      
C        C      0.306515000000     0.377495000000     0.292600000000    -0.201      
C        C      0.343865000000     0.402410000000     0.292700000000    -0.201      
C        C      0.193485000000     0.122505000000     0.292600000000    -0.201      
C        C      0.156135000000     0.097590000000     0.292700000000    -0.201      
C        C      0.122505000000     0.306515000000     0.292600000000    -0.201      
C        C      0.097590000000     0.343865000000     0.292700000000    -0.201      
C        C      0.377495000000     0.193485000000     0.292600000000    -0.201      
C        C      0.402410000000     0.156135000000     0.292700000000    -0.201      
C        C      0.193485000000     0.377495000000     0.207400000000    -0.201      
C        C      0.156135000000     0.402410000000     0.207300000000    -0.201      
C        C      0.306515000000     0.122505000000     0.207400000000    -0.201      
C        C      0.343865000000     0.097590000000     0.207300000000    -0.201      
C        C      0.377495000000     0.306515000000     0.207400000000    -0.201      
C        C      0.402410000000     0.343865000000     0.207300000000    -0.201      
C        C      0.122505000000     0.193485000000     0.207400000000    -0.201      
C        C      0.097590000000     0.156135000000     0.207300000000    -0.201      
C        C      0.212500000000     0.134250000000     0.000000000000    -0.201      
C        C      0.136750000000     0.085000000000     0.000000000000    -0.201      
C        C      0.095750000000     0.058950000000     0.000000000000    -0.201      
C        C      0.056350000000     0.082200000000     0.000000000000    -0.201      
C        C      0.052900000000     0.129000000000     0.000000000000    -0.201      
C        C      0.010350000000     0.138700000000     0.000000000000    -0.201      
C        C      0.486000000000     0.099050000000     0.000000000000    -0.201      
C        C      0.287500000000     0.365750000000     0.000000000000    -0.201      
C        C      0.363250000000     0.415000000000     0.000000000000    -0.201      
C        C      0.404250000000     0.441050000000     0.000000000000    -0.201      
C        C      0.443650000000     0.417800000000     0.000000000000    -0.201      
C        C      0.447100000000     0.371000000000     0.000000000000    -0.201      
C        C      0.489650000000     0.361300000000     0.000000000000    -0.201      
C        C      0.014000000000     0.400950000000     0.000000000000    -0.201      
C        C      0.365750000000     0.212500000000     0.000000000000    -0.201      
C        C      0.415000000000     0.136750000000     0.000000000000    -0.201      
C        C      0.441050000000     0.095750000000     0.000000000000    -0.201      
C        C      0.417800000000     0.056350000000     0.000000000000    -0.201      
C        C      0.371000000000     0.052900000000     0.000000000000    -0.201      
C        C      0.361300000000     0.010350000000     0.000000000000    -0.201      
C        C      0.400950000000     0.486000000000     0.000000000000    -0.201      
C        C      0.134250000000     0.287500000000     0.000000000000    -0.201      
C        C      0.085000000000     0.363250000000     0.000000000000    -0.201      
C        C      0.058950000000     0.404250000000     0.000000000000    -0.201      
C        C      0.082200000000     0.443650000000     0.000000000000    -0.201      
C        C      0.129000000000     0.447100000000     0.000000000000    -0.201      
C        C      0.138700000000     0.489650000000     0.000000000000    -0.201      
C        C      0.099050000000     0.014000000000     0.000000000000    -0.201      
C        C      0.287500000000     0.134250000000     0.166666666667    -0.201      
C        C      0.363250000000     0.085000000000     0.166666666667    -0.201      
C        C      0.404250000000     0.058950000000     0.166666666667    -0.201      
C        C      0.443650000000     0.082200000000     0.166666666667    -0.201      
C        C      0.447100000000     0.129000000000     0.166666666667    -0.201      
C        C      0.489650000000     0.138700000000     0.166666666667    -0.201      
C        C      0.014000000000     0.099050000000     0.166666666667    -0.201      
C        C      0.212500000000     0.365750000000     0.166666666667    -0.201      
C        C      0.136750000000     0.415000000000     0.166666666667    -0.201      
C        C      0.095750000000     0.441050000000     0.166666666667    -0.201      
C        C      0.056350000000     0.417800000000     0.166666666667    -0.201      
C        C      0.052900000000     0.371000000000     0.166666666667    -0.201      
C        C      0.010350000000     0.361300000000     0.166666666667    -0.201      
C        C      0.486000000000     0.400950000000     0.166666666667    -0.201      
C        C      0.134250000000     0.212500000000     0.166666666667    -0.201      
C        C      0.085000000000     0.136750000000     0.166666666667    -0.201      
C        C      0.058950000000     0.095750000000     0.166666666667    -0.201      
C        C      0.082200000000     0.056350000000     0.166666666667    -0.201      
C        C      0.129000000000     0.052900000000     0.166666666667    -0.201      
C        C      0.138700000000     0.010350000000     0.166666666667    -0.201      
C        C      0.099050000000     0.486000000000     0.166666666667    -0.201      
C        C      0.365750000000     0.287500000000     0.166666666667    -0.201      
C        C      0.415000000000     0.363250000000     0.166666666667    -0.201      
C        C      0.441050000000     0.404250000000     0.166666666667    -0.201      
C        C      0.417800000000     0.443650000000     0.166666666667    -0.201      
C        C      0.371000000000     0.447100000000     0.166666666667    -0.201      
C        C      0.361300000000     0.489650000000     0.166666666667    -0.201      
C        C      0.400950000000     0.014000000000     0.166666666667    -0.201      
C        C      0.193485000000     0.122505000000     0.374066666667    -0.201      
C        C      0.156135000000     0.097590000000     0.373966666667    -0.201      
C        C      0.306515000000     0.377495000000     0.374066666667    -0.201      
C        C      0.343865000000     0.402410000000     0.373966666667    -0.201      
C        C      0.377495000000     0.193485000000     0.374066666667    -0.201      
C        C      0.402410000000     0.156135000000     0.373966666667    -0.201      
C        C      0.122505000000     0.306515000000     0.374066666667    -0.201      
C        C      0.097590000000     0.343865000000     0.373966666667    -0.201      
C        C      0.306515000000     0.122505000000     0.459266666667    -0.201      
C        C      0.343865000000     0.097590000000     0.459366666667    -0.201      
C        C      0.193485000000     0.377495000000     0.459266666667    -0.201      
C        C      0.156135000000     0.402410000000     0.459366666667    -0.201      
C        C      0.122505000000     0.193485000000     0.459266666667    -0.201      
C        C      0.097590000000     0.156135000000     0.459366666667    -0.201      
C        C      0.377495000000     0.306515000000     0.459266666667    -0.201      
C        C      0.402410000000     0.343865000000     0.459366666667    -0.201      
C        C      0.306515000000     0.377495000000     0.625933333333    -0.201      
C        C      0.343865000000     0.402410000000     0.626033333333    -0.201      
C        C      0.193485000000     0.122505000000     0.625933333333    -0.201      
C        C      0.156135000000     0.097590000000     0.626033333333    -0.201      
C        C      0.122505000000     0.306515000000     0.625933333333    -0.201      
C        C      0.097590000000     0.343865000000     0.626033333333    -0.201      
C        C      0.377495000000     0.193485000000     0.625933333333    -0.201      
C        C      0.402410000000     0.156135000000     0.626033333333    -0.201      
C        C      0.193485000000     0.377495000000     0.540733333333    -0.201      
C        C      0.156135000000     0.402410000000     0.540633333333    -0.201      
C        C      0.306515000000     0.122505000000     0.540733333333    -0.201      
C        C      0.343865000000     0.097590000000     0.540633333333    -0.201      
C        C      0.377495000000     0.306515000000     0.540733333333    -0.201      
C        C      0.402410000000     0.343865000000     0.540633333333    -0.201      
C        C      0.122505000000     0.193485000000     0.540733333333    -0.201      
C        C      0.097590000000     0.156135000000     0.540633333333    -0.201      
C        C      0.212500000000     0.134250000000     0.333333333333    -0.201      
C        C      0.136750000000     0.085000000000     0.333333333333    -0.201      
C        C      0.095750000000     0.058950000000     0.333333333333    -0.201      
C        C      0.056350000000     0.082200000000     0.333333333333    -0.201      
C        C      0.052900000000     0.129000000000     0.333333333333    -0.201      
C        C      0.010350000000     0.138700000000     0.333333333333    -0.201      
C        C      0.486000000000     0.099050000000     0.333333333333    -0.201      
C        C      0.287500000000     0.365750000000     0.333333333333    -0.201      
C        C      0.363250000000     0.415000000000     0.333333333333    -0.201      
C        C      0.404250000000     0.441050000000     0.333333333333    -0.201      
C        C      0.443650000000     0.417800000000     0.333333333333    -0.201      
C        C      0.447100000000     0.371000000000     0.333333333333    -0.201      
C        C      0.489650000000     0.361300000000     0.333333333333    -0.201      
C        C      0.014000000000     0.400950000000     0.333333333333    -0.201      
C        C      0.365750000000     0.212500000000     0.333333333333    -0.201      
C        C      0.415000000000     0.136750000000     0.333333333333    -0.201      
C        C      0.441050000000     0.095750000000     0.333333333333    -0.201      
C        C      0.417800000000     0.056350000000     0.333333333333    -0.201      
C        C      0.371000000000     0.052900000000     0.333333333333    -0.201      
C        C      0.361300000000     0.010350000000     0.333333333333    -0.201      
C        C      0.400950000000     0.486000000000     0.333333333333    -0.201      
C        C      0.134250000000     0.287500000000     0.333333333333    -0.201      
C        C      0.085000000000     0.363250000000     0.333333333333    -0.201      
C        C      0.058950000000     0.404250000000     0.333333333333    -0.201      
C        C      0.082200000000     0.443650000000     0.333333333333    -0.201      
C        C      0.129000000000     0.447100000000     0.333333333333    -0.201      
C        C      0.138700000000     0.489650000000     0.333333333333    -0.201      
C        C      0.099050000000     0.014000000000     0.333333333333    -0.201      
C        C      0.287500000000     0.134250000000     0.500000000000    -0.201      
C        C      0.363250000000     0.085000000000     0.500000000000    -0.201      
C        C      0.404250000000     0.058950000000     0.500000000000    -0.201      
C        C      0.443650000000     0.082200000000     0.500000000000    -0.201      
C        C      0.447100000000     0.129000000000     0.500000000000    -0.201      
C        C      0.489650000000     0.138700000000     0.500000000000    -0.201      
C        C      0.014000000000     0.099050000000     0.500000000000    -0.201      
C        C      0.212500000000     0.365750000000     0.500000000000    -0.201      
C        C      0.136750000000     0.415000000000     0.500000000000    -0.201      
C        C      0.095750000000     0.441050000000     0.500000000000    -0.201      
C        C      0.056350000000     0.417800000000     0.500000000000    -0.201      
C        C      0.052900000000     0.371000000000     0.500000000000    -0.201      
C        C      0.010350000000     0.361300000000     0.500000000000    -0.201      
C        C      0.486000000000     0.400950000000     0.500000000000    -0.201      
C        C      0.134250000000     0.212500000000     0.500000000000    -0.201      
C        C      0.085000000000     0.136750000000     0.500000000000    -0.201      
C        C      0.058950000000     0.095750000000     0.500000000000    -0.201      
C        C      0.082200000000     0.056350000000     0.500000000000    -0.201      
C        C      0.129000000000     0.052900000000     0.500000000000    -0.201      
C        C      0.138700000000     0.010350000000     0.500000000000    -0.201      
C        C      0.099050000000     0.486000000000     0.500000000000    -0.201      
C        C      0.365750000000     0.287500000000     0.500000000000    -0.201      
C        C      0.415000000000     0.363250000000     0.500000000000    -0.201      
C        C      0.441050000000     0.404250000000     0.500000000000    -0.201      
C        C      0.417800000000     0.443650000000     0.500000000000    -0.201      
C        C      0.371000000000     0.447100000000     0.500000000000    -0.201      
C        C      0.361300000000     0.489650000000     0.500000000000    -0.201      
C        C      0.400950000000     0.014000000000     0.500000000000    -0.201      
C        C      0.193485000000     0.122505000000     0.707400000000    -0.201      
C        C      0.156135000000     0.097590000000     0.707300000000    -0.201      
C        C      0.306515000000     0.377495000000     0.707400000000    -0.201      
C        C      0.343865000000     0.402410000000     0.707300000000    -0.201      
C        C      0.377495000000     0.193485000000     0.707400000000    -0.201      
C        C      0.402410000000     0.156135000000     0.707300000000    -0.201      
C        C      0.122505000000     0.306515000000     0.707400000000    -0.201      
C        C      0.097590000000     0.343865000000     0.707300000000    -0.201      
C        C      0.306515000000     0.122505000000     0.792600000000    -0.201      
C        C      0.343865000000     0.097590000000     0.792700000000    -0.201      
C        C      0.193485000000     0.377495000000     0.792600000000    -0.201      
C        C      0.156135000000     0.402410000000     0.792700000000    -0.201      
C        C      0.122505000000     0.193485000000     0.792600000000    -0.201      
C        C      0.097590000000     0.156135000000     0.792700000000    -0.201      
C        C      0.377495000000     0.306515000000     0.792600000000    -0.201      
C        C      0.402410000000     0.343865000000     0.792700000000    -0.201      
C        C      0.306515000000     0.377495000000     0.959266666667    -0.201      
C        C      0.343865000000     0.402410000000     0.959366666667    -0.201      
C        C      0.193485000000     0.122505000000     0.959266666667    -0.201      
C        C      0.156135000000     0.097590000000     0.959366666667    -0.201      
C        C      0.122505000000     0.306515000000     0.959266666667    -0.201      
C        C      0.097590000000     0.343865000000     0.959366666667    -0.201      
C        C      0.377495000000     0.193485000000     0.959266666667    -0.201      
C        C      0.402410000000     0.156135000000     0.959366666667    -0.201      
C        C      0.193485000000     0.377495000000     0.874066666667    -0.201      
C        C      0.156135000000     0.402410000000     0.873966666667    -0.201      
C        C      0.306515000000     0.122505000000     0.874066666667    -0.201      
C        C      0.343865000000     0.097590000000     0.873966666667    -0.201      
C        C      0.377495000000     0.306515000000     0.874066666667    -0.201      
C        C      0.402410000000     0.343865000000     0.873966666667    -0.201      
C        C      0.122505000000     0.193485000000     0.874066666667    -0.201      
C        C      0.097590000000     0.156135000000     0.873966666667    -0.201      
C        C      0.212500000000     0.134250000000     0.666666666667    -0.201      
C        C      0.136750000000     0.085000000000     0.666666666667    -0.201      
C        C      0.095750000000     0.058950000000     0.666666666667    -0.201      
C        C      0.056350000000     0.082200000000     0.666666666667    -0.201      
C        C      0.052900000000     0.129000000000     0.666666666667    -0.201      
C        C      0.010350000000     0.138700000000     0.666666666667    -0.201      
C        C      0.486000000000     0.099050000000     0.666666666667    -0.201      
C        C      0.287500000000     0.365750000000     0.666666666667    -0.201      
C        C      0.363250000000     0.415000000000     0.666666666667    -0.201      
C        C      0.404250000000     0.441050000000     0.666666666667    -0.201      
C        C      0.443650000000     0.417800000000     0.666666666667    -0.201      
C        C      0.447100000000     0.371000000000     0.666666666667    -0.201      
C        C      0.489650000000     0.361300000000     0.666666666667    -0.201      
C        C      0.014000000000     0.400950000000     0.666666666667    -0.201      
C        C      0.365750000000     0.212500000000     0.666666666667    -0.201      
C        C      0.415000000000     0.136750000000     0.666666666667    -0.201      
C        C      0.441050000000     0.095750000000     0.666666666667    -0.201      
C        C      0.417800000000     0.056350000000     0.666666666667    -0.201      
C        C      0.371000000000     0.052900000000     0.666666666667    -0.201      
C        C      0.361300000000     0.010350000000     0.666666666667    -0.201      
C        C      0.400950000000     0.486000000000     0.666666666667    -0.201      
C        C      0.134250000000     0.287500000000     0.666666666667    -0.201      
C        C      0.085000000000     0.363250000000     0.666666666667    -0.201      
C        C      0.058950000000     0.404250000000     0.666666666667    -0.201      
C        C      0.082200000000     0.443650000000     0.666666666667    -0.201      
C        C      0.129000000000     0.447100000000     0.666666666667    -0.201      
C        C      0.138700000000     0.489650000000     0.666666666667    -0.201      
C        C      0.099050000000     0.014000000000     0.666666666667    -0.201      
C        C      0.287500000000     0.134250000000     0.833333333333    -0.201      
C        C      0.363250000000     0.085000000000     0.833333333333    -0.201      
C        C      0.404250000000     0.058950000000     0.833333333333    -0.201      
C        C      0.443650000000     0.082200000000     0.833333333333    -0.201      
C        C      0.447100000000     0.129000000000     0.833333333333    -0.201      
C        C      0.489650000000     0.138700000000     0.833333333333    -0.201      
C        C      0.014000000000     0.099050000000     0.833333333333    -0.201      
C        C      0.212500000000     0.365750000000     0.833333333333    -0.201      
C        C      0.136750000000     0.415000000000     0.833333333333    -0.201      
C        C      0.095750000000     0.441050000000     0.833333333333    -0.201      
C        C      0.056350000000     0.417800000000     0.833333333333    -0.201      
C        C      0.052900000000     0.371000000000     0.833333333333    -0.201      
C        C      0.010350000000     0.361300000000     0.833333333333    -0.201      
C        C      0.486000000000     0.400950000000     0.833333333333    -0.201      
C        C      0.134250000000     0.212500000000     0.833333333333    -0.201      
C        C      0.085000000000     0.136750000000     0.833333333333    -0.201      
C        C      0.058950000000     0.095750000000     0.833333333333    -0.201      
C        C      0.082200000000     0.056350000000     0.833333333333    -0.201      
C        C      0.129000000000     0.052900000000     0.833333333333    -0.201      
C        C      0.138700000000     0.010350000000     0.833333333333    -0.201      
C        C      0.099050000000     0.486000000000     0.833333333333    -0.201      
C        C      0.365750000000     0.287500000000     0.833333333333    -0.201      
C        C      0.415000000000     0.363250000000     0.833333333333    -0.201      
C        C      0.441050000000     0.404250000000     0.833333333333    -0.201      
C        C      0.417800000000     0.443650000000     0.833333333333    -0.201      
C        C      0.371000000000     0.447100000000     0.833333333333    -0.201      
C        C      0.361300000000     0.489650000000     0.833333333333    -0.201      
C        C      0.400950000000     0.014000000000     0.833333333333    -0.201      
C        C      0.193485000000     0.622505000000     0.040733333333    -0.201      
C        C      0.156135000000     0.597590000000     0.040633333333    -0.201      
C        C      0.306515000000     0.877495000000     0.040733333333    -0.201      
C        C      0.343865000000     0.902410000000     0.040633333333    -0.201      
C        C      0.377495000000     0.693485000000     0.040733333333    -0.201      
C        C      0.402410000000     0.656135000000     0.040633333333    -0.201      
C        C      0.122505000000     0.806515000000     0.040733333333    -0.201      
C        C      0.097590000000     0.843865000000     0.040633333333    -0.201      
C        C      0.306515000000     0.622505000000     0.125933333333    -0.201      
C        C      0.343865000000     0.597590000000     0.126033333333    -0.201      
C        C      0.193485000000     0.877495000000     0.125933333333    -0.201      
C        C      0.156135000000     0.902410000000     0.126033333333    -0.201      
C        C      0.122505000000     0.693485000000     0.125933333333    -0.201      
C        C      0.097590000000     0.656135000000     0.126033333333    -0.201      
C        C      0.377495000000     0.806515000000     0.125933333333    -0.201      
C        C      0.402410000000     0.843865000000     0.126033333333    -0.201      
C        C      0.306515000000     0.877495000000     0.292600000000    -0.201      
C        C      0.343865000000     0.902410000000     0.292700000000    -0.201      
C        C      0.193485000000     0.622505000000     0.292600000000    -0.201      
C        C      0.156135000000     0.597590000000     0.292700000000    -0.201      
C        C      0.122505000000     0.806515000000     0.292600000000    -0.201      
C        C      0.097590000000     0.843865000000     0.292700000000    -0.201      
C        C      0.377495000000     0.693485000000     0.292600000000    -0.201      
C        C      0.402410000000     0.656135000000     0.292700000000    -0.201      
C        C      0.193485000000     0.877495000000     0.207400000000    -0.201      
C        C      0.156135000000     0.902410000000     0.207300000000    -0.201      
C        C      0.306515000000     0.622505000000     0.207400000000    -0.201      
C        C      0.343865000000     0.597590000000     0.207300000000    -0.201      
C        C      0.377495000000     0.806515000000     0.207400000000    -0.201      
C        C      0.402410000000     0.843865000000     0.207300000000    -0.201      
C        C      0.122505000000     0.693485000000     0.207400000000    -0.201      
C        C      0.097590000000     0.656135000000     0.207300000000    -0.201      
C        C      0.212500000000     0.634250000000     0.000000000000    -0.201      
C        C      0.136750000000     0.585000000000     0.000000000000    -0.201      
C        C      0.095750000000     0.558950000000     0.000000000000    -0.201      
C        C      0.056350000000     0.582200000000     0.000000000000    -0.201      
C        C      0.052900000000     0.629000000000     0.000000000000    -0.201      
C        C      0.010350000000     0.638700000000     0.000000000000    -0.201      
C        C      0.486000000000     0.599050000000     0.000000000000    -0.201      
C        C      0.287500000000     0.865750000000     0.000000000000    -0.201      
C        C      0.363250000000     0.915000000000     0.000000000000    -0.201      
C        C      0.404250000000     0.941050000000     0.000000000000    -0.201      
C        C      0.443650000000     0.917800000000     0.000000000000    -0.201      
C        C      0.447100000000     0.871000000000     0.000000000000    -0.201      
C        C      0.489650000000     0.861300000000     0.000000000000    -0.201      
C        C      0.014000000000     0.900950000000     0.000000000000    -0.201      
C        C      0.365750000000     0.712500000000     0.000000000000    -0.201      
C        C      0.415000000000     0.636750000000     0.000000000000    -0.201      
C        C      0.441050000000     0.595750000000     0.000000000000    -0.201      
C        C      0.417800000000     0.556350000000     0.000000000000    -0.201      
C        C      0.371000000000     0.552900000000     0.000000000000    -0.201      
C        C      0.361300000000     0.510350000000     0.000000000000    -0.201      
C        C      0.400950000000     0.986000000000     0.000000000000    -0.201      
C        C      0.134250000000     0.787500000000     0.000000000000    -0.201      
C        C      0.085000000000     0.863250000000     0.000000000000    -0.201      
C        C      0.058950000000     0.904250000000     0.000000000000    -0.201      
C        C      0.082200000000     0.943650000000     0.000000000000    -0.201      
C        C      0.129000000000     0.947100000000     0.000000000000    -0.201      
C        C      0.138700000000     0.989650000000     0.000000000000    -0.201      
C        C      0.099050000000     0.514000000000     0.000000000000    -0.201      
C        C      0.287500000000     0.634250000000     0.166666666667    -0.201      
C        C      0.363250000000     0.585000000000     0.166666666667    -0.201      
C        C      0.404250000000     0.558950000000     0.166666666667    -0.201      
C        C      0.443650000000     0.582200000000     0.166666666667    -0.201      
C        C      0.447100000000     0.629000000000     0.166666666667    -0.201      
C        C      0.489650000000     0.638700000000     0.166666666667    -0.201      
C        C      0.014000000000     0.599050000000     0.166666666667    -0.201      
C        C      0.212500000000     0.865750000000     0.166666666667    -0.201      
C        C      0.136750000000     0.915000000000     0.166666666667    -0.201      
C        C      0.095750000000     0.941050000000     0.166666666667    -0.201      
C        C      0.056350000000     0.917800000000     0.166666666667    -0.201      
C        C      0.052900000000     0.871000000000     0.166666666667    -0.201      
C        C      0.010350000000     0.861300000000     0.166666666667    -0.201      
C        C      0.486000000000     0.900950000000     0.166666666667    -0.201      
C        C      0.134250000000     0.712500000000     0.166666666667    -0.201      
C        C      0.085000000000     0.636750000000     0.166666666667    -0.201      
C        C      0.058950000000     0.595750000000     0.166666666667    -0.201      
C        C      0.082200000000     0.556350000000     0.166666666667    -0.201      
C        C      0.129000000000     0.552900000000     0.166666666667    -0.201      
C        C      0.138700000000     0.510350000000     0.166666666667    -0.201      
C        C      0.099050000000     0.986000000000     0.166666666667    -0.201      
C        C      0.365750000000     0.787500000000     0.166666666667    -0.201      
C        C      0.415000000000     0.863250000000     0.166666666667    -0.201      
C        C      0.441050000000     0.904250000000     0.166666666667    -0.201      
C        C      0.417800000000     0.943650000000     0.166666666667    -0.201      
C        C      0.371000000000     0.947100000000     0.166666666667    -0.201      
C        C      0.361300000000     0.989650000000     0.166666666667    -0.201      
C        C      0.400950000000     0.514000000000     0.166666666667    -0.201      
C        C      0.193485000000     0.622505000000     0.374066666667    -0.201      
C        C      0.156135000000     0.597590000000     0.373966666667    -0.201      
C        C      0.306515000000     0.877495000000     0.374066666667    -0.201      
C        C      0.343865000000     0.902410000000     0.373966666667    -0.201      
C        C      0.377495000000     0.693485000000     0.374066666667    -0.201      
C        C      0.402410000000     0.656135000000     0.373966666667    -0.201      
C        C      0.122505000000     0.806515000000     0.374066666667    -0.201      
C        C      0.097590000000     0.843865000000     0.373966666667    -0.201      
C        C      0.306515000000     0.622505000000     0.459266666667    -0.201      
C        C      0.343865000000     0.597590000000     0.459366666667    -0.201      
C        C      0.193485000000     0.877495000000     0.459266666667    -0.201      
C        C      0.156135000000     0.902410000000     0.459366666667    -0.201      
C        C      0.122505000000     0.693485000000     0.459266666667    -0.201      
C        C      0.097590000000     0.656135000000     0.459366666667    -0.201      
C        C      0.377495000000     0.806515000000     0.459266666667    -0.201      
C        C      0.402410000000     0.843865000000     0.459366666667    -0.201      
C        C      0.306515000000     0.877495000000     0.625933333333    -0.201      
C        C      0.343865000000     0.902410000000     0.626033333333    -0.201      
C        C      0.193485000000     0.622505000000     0.625933333333    -0.201      
C        C      0.156135000000     0.597590000000     0.626033333333    -0.201      
C        C      0.122505000000     0.806515000000     0.625933333333    -0.201      
C        C      0.097590000000     0.843865000000     0.626033333333    -0.201      
C        C      0.377495000000     0.693485000000     0.625933333333    -0.201      
C        C      0.402410000000     0.656135000000     0.626033333333    -0.201      
C        C      0.193485000000     0.877495000000     0.540733333333    -0.201      
C        C      0.156135000000     0.902410000000     0.540633333333    -0.201      
C        C      0.306515000000     0.622505000000     0.540733333333    -0.201      
C        C      0.343865000000     0.597590000000     0.540633333333    -0.201      
C        C      0.377495000000     0.806515000000     0.540733333333    -0.201      
C        C      0.402410000000     0.843865000000     0.540633333333    -0.201      
C        C      0.122505000000     0.693485000000     0.540733333333    -0.201      
C        C      0.097590000000     0.656135000000     0.540633333333    -0.201      
C        C      0.212500000000     0.634250000000     0.333333333333    -0.201      
C        C      0.136750000000     0.585000000000     0.333333333333    -0.201      
C        C      0.095750000000     0.558950000000     0.333333333333    -0.201      
C        C      0.056350000000     0.582200000000     0.333333333333    -0.201      
C        C      0.052900000000     0.629000000000     0.333333333333    -0.201      
C        C      0.010350000000     0.638700000000     0.333333333333    -0.201      
C        C      0.486000000000     0.599050000000     0.333333333333    -0.201      
C        C      0.287500000000     0.865750000000     0.333333333333    -0.201      
C        C      0.363250000000     0.915000000000     0.333333333333    -0.201      
C        C      0.404250000000     0.941050000000     0.333333333333    -0.201      
C        C      0.443650000000     0.917800000000     0.333333333333    -0.201      
C        C      0.447100000000     0.871000000000     0.333333333333    -0.201      
C        C      0.489650000000     0.861300000000     0.333333333333    -0.201      
C        C      0.014000000000     0.900950000000     0.333333333333    -0.201      
C        C      0.365750000000     0.712500000000     0.333333333333    -0.201      
C        C      0.415000000000     0.636750000000     0.333333333333    -0.201      
C        C      0.441050000000     0.595750000000     0.333333333333    -0.201      
C        C      0.417800000000     0.556350000000     0.333333333333    -0.201      
C        C      0.371000000000     0.552900000000     0.333333333333    -0.201      
C        C      0.361300000000     0.510350000000     0.333333333333    -0.201      
C        C      0.400950000000     0.986000000000     0.333333333333    -0.201      
C        C      0.134250000000     0.787500000000     0.333333333333    -0.201      
C        C      0.085000000000     0.863250000000     0.333333333333    -0.201      
C        C      0.058950000000     0.904250000000     0.333333333333    -0.201      
C        C      0.082200000000     0.943650000000     0.333333333333    -0.201      
C        C      0.129000000000     0.947100000000     0.333333333333    -0.201      
C        C      0.138700000000     0.989650000000     0.333333333333    -0.201      
C        C      0.099050000000     0.514000000000     0.333333333333    -0.201      
C        C      0.287500000000     0.634250000000     0.500000000000    -0.201      
C        C      0.363250000000     0.585000000000     0.500000000000    -0.201      
C        C      0.404250000000     0.558950000000     0.500000000000    -0.201      
C        C      0.443650000000     0.582200000000     0.500000000000    -0.201      
C        C      0.447100000000     0.629000000000     0.500000000000    -0.201      
C        C      0.489650000000     0.638700000000     0.500000000000    -0.201      
C        C      0.014000000000     0.599050000000     0.500000000000    -0.201      
C        C      0.212500000000     0.865750000000     0.500000000000    -0.201      
C        C      0.136750000000     0.915000000000     0.500000000000    -0.201      
C        C      0.095750000000     0.941050000000     0.500000000000    -0.201      
C        C      0.056350000000     0.917800000000     0.500000000000    -0.201      
C        C      0.052900000000     0.871000000000     0.500000000000    -0.201      
C        C      0.010350000000     0.861300000000     0.500000000000    -0.201      
C        C      0.486000000000     0.900950000000     0.500000000000    -0.201      
C        C      0.134250000000     0.712500000000     0.500000000000    -0.201      
C        C      0.085000000000     0.636750000000     0.500000000000    -0.201      
C        C      0.058950000000     0.595750000000     0.500000000000    -0.201      
C        C      0.082200000000     0.556350000000     0.500000000000    -0.201      
C        C      0.129000000000     0.552900000000     0.500000000000    -0.201      
C        C      0.138700000000     0.510350000000     0.500000000000    -0.201      
C        C      0.099050000000     0.986000000000     0.500000000000    -0.201      
C        C      0.365750000000     0.787500000000     0.500000000000    -0.201      
C        C      0.415000000000     0.863250000000     0.500000000000    -0.201      
C        C      0.441050000000     0.904250000000     0.500000000000    -0.201      
C        C      0.417800000000     0.943650000000     0.500000000000    -0.201      
C        C      0.371000000000     0.947100000000     0.500000000000    -0.201      
C        C      0.361300000000     0.989650000000     0.500000000000    -0.201      
C        C      0.400950000000     0.514000000000     0.500000000000    -0.201      
C        C      0.193485000000     0.622505000000     0.707400000000    -0.201      
C        C      0.156135000000     0.597590000000     0.707300000000    -0.201      
C        C      0.306515000000     0.877495000000     0.707400000000    -0.201      
C        C      0.343865000000     0.902410000000     0.707300000000    -0.201      
C        C      0.377495000000     0.693485000000     0.707400000000    -0.201      
C        C      0.402410000000     0.656135000000     0.707300000000    -0.201      
C        C      0.122505000000     0.806515000000     0.707400000000    -0.201      
C        C      0.097590000000     0.843865000000     0.707300000000    -0.201      
C        C      0.306515000000     0.622505000000     0.792600000000    -0.201      
C        C      0.343865000000     0.597590000000     0.792700000000    -0.201      
C        C      0.193485000000     0.877495000000     0.792600000000    -0.201      
C        C      0.156135000000     0.902410000000     0.792700000000    -0.201      
C        C      0.122505000000     0.693485000000     0.792600000000    -0.201      
C        C      0.097590000000     0.656135000000     0.792700000000    -0.201      
C        C      0.377495000000     0.806515000000     0.792600000000    -0.201      
C        C      0.402410000000     0.843865000000     0.792700000000    -0.201      
C        C      0.306515000000     0.877495000000     0.959266666667    -0.201      
C        C      0.343865000000     0.902410000000     0.959366666667    -0.201      
C        C      0.193485000000     0.622505000000     0.959266666667    -0.201      
C        C      0.156135000000     0.597590000000     0.959366666667    -0.201      
C        C      0.122505000000     0.806515000000     0.959266666667    -0.201      
C        C      0.097590000000     0.843865000000     0.959366666667    -0.201      
C        C      0.377495000000     0.693485000000     0.959266666667    -0.201      
C        C      0.402410000000     0.656135000000     0.959366666667    -0.201      
C        C      0.193485000000     0.877495000000     0.874066666667    -0.201      
C        C      0.156135000000     0.902410000000     0.873966666667    -0.201      
C        C      0.306515000000     0.622505000000     0.874066666667    -0.201      
C        C      0.343865000000     0.597590000000     0.873966666667    -0.201      
C        C      0.377495000000     0.806515000000     0.874066666667    -0.201      
C        C      0.402410000000     0.843865000000     0.873966666667    -0.201      
C        C      0.122505000000     0.693485000000     0.874066666667    -0.201      
C        C      0.097590000000     0.656135000000     0.873966666667    -0.201      
C        C      0.212500000000     0.634250000000     0.666666666667    -0.201      
C        C      0.136750000000     0.585000000000     0.666666666667    -0.201      
C        C      0.095750000000     0.558950000000     0.666666666667    -0.201      
C        C      0.056350000000     0.582200000000     0.666666666667    -0.201      
C        C      0.052900000000     0.629000000000     0.666666666667    -0.201      
C        C      0.010350000000     0.638700000000     0.666666666667    -0.201      
C        C      0.486000000000     0.599050000000     0.666666666667    -0.201      
C        C      0.287500000000     0.865750000000     0.666666666667    -0.201      
C        C      0.363250000000     0.915000000000     0.666666666667    -0.201      
C        C      0.404250000000     0.941050000000     0.666666666667    -0.201      
C        C      0.443650000000     0.917800000000     0.666666666667    -0.201      
C        C      0.447100000000     0.871000000000     0.666666666667    -0.201      
C        C      0.489650000000     0.861300000000     0.666666666667    -0.201      
C        C      0.014000000000     0.900950000000     0.666666666667    -0.201      
C        C      0.365750000000     0.712500000000     0.666666666667    -0.201      
C        C      0.415000000000     0.636750000000     0.666666666667    -0.201      
C        C      0.441050000000     0.595750000000     0.666666666667    -0.201      
C        C      0.417800000000     0.556350000000     0.666666666667    -0.201      
C        C      0.371000000000     0.552900000000     0.666666666667    -0.201      
C        C      0.361300000000     0.510350000000     0.666666666667    -0.201      
C        C      0.400950000000     0.986000000000     0.666666666667    -0.201      
C        C      0.134250000000     0.787500000000     0.666666666667    -0.201      
C        C      0.085000000000     0.863250000000     0.666666666667    -0.201      
C        C      0.058950000000     0.904250000000     0.666666666667    -0.201      
C        C      0.082200000000     0.943650000000     0.666666666667    -0.201      
C        C      0.129000000000     0.947100000000     0.666666666667    -0.201      
C        C      0.138700000000     0.989650000000     0.666666666667    -0.201      
C        C      0.099050000000     0.514000000000     0.666666666667    -0.201      
C        C      0.287500000000     0.634250000000     0.833333333333    -0.201      
C        C      0.363250000000     0.585000000000     0.833333333333    -0.201      
C        C      0.404250000000     0.558950000000     0.833333333333    -0.201      
C        C      0.443650000000     0.582200000000     0.833333333333    -0.201      
C        C      0.447100000000     0.629000000000     0.833333333333    -0.201      
C        C      0.489650000000     0.638700000000     0.833333333333    -0.201      
C        C      0.014000000000     0.599050000000     0.833333333333    -0.201      
C        C      0.212500000000     0.865750000000     0.833333333333    -0.201      
C        C      0.136750000000     0.915000000000     0.833333333333    -0.201      
C        C      0.095750000000     0.941050000000     0.833333333333    -0.201      
C        C      0.056350000000     0.917800000000     0.833333333333    -0.201      
C        C      0.052900000000     0.871000000000     0.833333333333    -0.201      
C        C      0.010350000000     0.861300000000     0.833333333333    -0.201      
C        C      0.486000000000     0.900950000000     0.833333333333    -0.201      
C        C      0.134250000000     0.712500000000     0.833333333333    -0.201      
C        C      0.085000000000     0.636750000000     0.833333333333    -0.201      
C        C      0.058950000000     0.595750000000     0.833333333333    -0.201      
C        C      0.082200000000     0.556350000000     0.833333333333    -0.201      
C        C      0.129000000000     0.552900000000     0.833333333333    -0.201      
C        C      0.138700000000     0.510350000000     0.833333333333    -0.201      
C        C      0.099050000000     0.986000000000     0.833333333333    -0.201      
C        C      0.365750000000     0.787500000000     0.833333333333    -0.201      
C        C      0.415000000000     0.863250000000     0.833333333333    -0.201      
C        C      0.441050000000     0.904250000000     0.833333333333    -0.201      
C        C      0.417800000000     0.943650000000     0.833333333333    -0.201      
C        C      0.371000000000     0.947100000000     0.833333333333    -0.201      
C        C      0.361300000000     0.989650000000     0.833333333333    -0.201      
C        C      0.400950000000     0.514000000000     0.833333333333    -0.201      
C        C      0.693485000000     0.122505000000     0.040733333333    -0.201      
C        C      0.656135000000     0.097590000000     0.040633333333    -0.201      
C        C      0.806515000000     0.377495000000     0.040733333333    -0.201      
C        C      0.843865000000     0.402410000000     0.040633333333    -0.201      
C        C      0.877495000000     0.193485000000     0.040733333333    -0.201      
C        C      0.902410000000     0.156135000000     0.040633333333    -0.201      
C        C      0.622505000000     0.306515000000     0.040733333333    -0.201      
C        C      0.597590000000     0.343865000000     0.040633333333    -0.201      
C        C      0.806515000000     0.122505000000     0.125933333333    -0.201      
C        C      0.843865000000     0.097590000000     0.126033333333    -0.201      
C        C      0.693485000000     0.377495000000     0.125933333333    -0.201      
C        C      0.656135000000     0.402410000000     0.126033333333    -0.201      
C        C      0.622505000000     0.193485000000     0.125933333333    -0.201      
C        C      0.597590000000     0.156135000000     0.126033333333    -0.201      
C        C      0.877495000000     0.306515000000     0.125933333333    -0.201      
C        C      0.902410000000     0.343865000000     0.126033333333    -0.201      
C        C      0.806515000000     0.377495000000     0.292600000000    -0.201      
C        C      0.843865000000     0.402410000000     0.292700000000    -0.201      
C        C      0.693485000000     0.122505000000     0.292600000000    -0.201      
C        C      0.656135000000     0.097590000000     0.292700000000    -0.201      
C        C      0.622505000000     0.306515000000     0.292600000000    -0.201      
C        C      0.597590000000     0.343865000000     0.292700000000    -0.201      
C        C      0.877495000000     0.193485000000     0.292600000000    -0.201      
C        C      0.902410000000     0.156135000000     0.292700000000    -0.201      
C        C      0.693485000000     0.377495000000     0.207400000000    -0.201      
C        C      0.656135000000     0.402410000000     0.207300000000    -0.201      
C        C      0.806515000000     0.122505000000     0.207400000000    -0.201      
C        C      0.843865000000     0.097590000000     0.207300000000    -0.201      
C        C      0.877495000000     0.306515000000     0.207400000000    -0.201      
C        C      0.902410000000     0.343865000000     0.207300000000    -0.201      
C        C      0.622505000000     0.193485000000     0.207400000000    -0.201      
C        C      0.597590000000     0.156135000000     0.207300000000    -0.201      
C        C      0.712500000000     0.134250000000     0.000000000000    -0.201      
C        C      0.636750000000     0.085000000000     0.000000000000    -0.201      
C        C      0.595750000000     0.058950000000     0.000000000000    -0.201      
C        C      0.556350000000     0.082200000000     0.000000000000    -0.201      
C        C      0.552900000000     0.129000000000     0.000000000000    -0.201      
C        C      0.510350000000     0.138700000000     0.000000000000    -0.201      
C        C      0.986000000000     0.099050000000     0.000000000000    -0.201      
C        C      0.787500000000     0.365750000000     0.000000000000    -0.201      
C        C      0.863250000000     0.415000000000     0.000000000000    -0.201      
C        C      0.904250000000     0.441050000000     0.000000000000    -0.201      
C        C      0.943650000000     0.417800000000     0.000000000000    -0.201      
C        C      0.947100000000     0.371000000000     0.000000000000    -0.201      
C        C      0.989650000000     0.361300000000     0.000000000000    -0.201      
C        C      0.514000000000     0.400950000000     0.000000000000    -0.201      
C        C      0.865750000000     0.212500000000     0.000000000000    -0.201      
C        C      0.915000000000     0.136750000000     0.000000000000    -0.201      
C        C      0.941050000000     0.095750000000     0.000000000000    -0.201      
C        C      0.917800000000     0.056350000000     0.000000000000    -0.201      
C        C      0.871000000000     0.052900000000     0.000000000000    -0.201      
C        C      0.861300000000     0.010350000000     0.000000000000    -0.201      
C        C      0.900950000000     0.486000000000     0.000000000000    -0.201      
C        C      0.634250000000     0.287500000000     0.000000000000    -0.201      
C        C      0.585000000000     0.363250000000     0.000000000000    -0.201      
C        C      0.558950000000     0.404250000000     0.000000000000    -0.201      
C        C      0.582200000000     0.443650000000     0.000000000000    -0.201      
C        C      0.629000000000     0.447100000000     0.000000000000    -0.201      
C        C      0.638700000000     0.489650000000     0.000000000000    -0.201      
C        C      0.599050000000     0.014000000000     0.000000000000    -0.201      
C        C      0.787500000000     0.134250000000     0.166666666667    -0.201      
C        C      0.863250000000     0.085000000000     0.166666666667    -0.201      
C        C      0.904250000000     0.058950000000     0.166666666667    -0.201      
C        C      0.943650000000     0.082200000000     0.166666666667    -0.201      
C        C      0.947100000000     0.129000000000     0.166666666667    -0.201      
C        C      0.989650000000     0.138700000000     0.166666666667    -0.201      
C        C      0.514000000000     0.099050000000     0.166666666667    -0.201      
C        C      0.712500000000     0.365750000000     0.166666666667    -0.201      
C        C      0.636750000000     0.415000000000     0.166666666667    -0.201      
C        C      0.595750000000     0.441050000000     0.166666666667    -0.201      
C        C      0.556350000000     0.417800000000     0.166666666667    -0.201      
C        C      0.552900000000     0.371000000000     0.166666666667    -0.201      
C        C      0.510350000000     0.361300000000     0.166666666667    -0.201      
C        C      0.986000000000     0.400950000000     0.166666666667    -0.201      
C        C      0.634250000000     0.212500000000     0.166666666667    -0.201      
C        C      0.585000000000     0.136750000000     0.166666666667    -0.201      
C        C      0.558950000000     0.095750000000     0.166666666667    -0.201      
C        C      0.582200000000     0.056350000000     0.166666666667    -0.201      
C        C      0.629000000000     0.052900000000     0.166666666667    -0.201      
C        C      0.638700000000     0.010350000000     0.166666666667    -0.201      
C        C      0.599050000000     0.486000000000     0.166666666667    -0.201      
C        C      0.865750000000     0.287500000000     0.166666666667    -0.201      
C        C      0.915000000000     0.363250000000     0.166666666667    -0.201      
C        C      0.941050000000     0.404250000000     0.166666666667    -0.201      
C        C      0.917800000000     0.443650000000     0.166666666667    -0.201      
C        C      0.871000000000     0.447100000000     0.166666666667    -0.201      
C        C      0.861300000000     0.489650000000     0.166666666667    -0.201      
C        C      0.900950000000     0.014000000000     0.166666666667    -0.201      
C        C      0.693485000000     0.122505000000     0.374066666667    -0.201      
C        C      0.656135000000     0.097590000000     0.373966666667    -0.201      
C        C      0.806515000000     0.377495000000     0.374066666667    -0.201      
C        C      0.843865000000     0.402410000000     0.373966666667    -0.201      
C        C      0.877495000000     0.193485000000     0.374066666667    -0.201      
C        C      0.902410000000     0.156135000000     0.373966666667    -0.201      
C        C      0.622505000000     0.306515000000     0.374066666667    -0.201      
C        C      0.597590000000     0.343865000000     0.373966666667    -0.201      
C        C      0.806515000000     0.122505000000     0.459266666667    -0.201      
C        C      0.843865000000     0.097590000000     0.459366666667    -0.201      
C        C      0.693485000000     0.377495000000     0.459266666667    -0.201      
C        C      0.656135000000     0.402410000000     0.459366666667    -0.201      
C        C      0.622505000000     0.193485000000     0.459266666667    -0.201      
C        C      0.597590000000     0.156135000000     0.459366666667    -0.201      
C        C      0.877495000000     0.306515000000     0.459266666667    -0.201      
C        C      0.902410000000     0.343865000000     0.459366666667    -0.201      
C        C      0.806515000000     0.377495000000     0.625933333333    -0.201      
C        C      0.843865000000     0.402410000000     0.626033333333    -0.201      
C        C      0.693485000000     0.122505000000     0.625933333333    -0.201      
C        C      0.656135000000     0.097590000000     0.626033333333    -0.201      
C        C      0.622505000000     0.306515000000     0.625933333333    -0.201      
C        C      0.597590000000     0.343865000000     0.626033333333    -0.201      
C        C      0.877495000000     0.193485000000     0.625933333333    -0.201      
C        C      0.902410000000     0.156135000000     0.626033333333    -0.201      
C        C      0.693485000000     0.377495000000     0.540733333333    -0.201      
C        C      0.656135000000     0.402410000000     0.540633333333    -0.201      
C        C      0.806515000000     0.122505000000     0.540733333333    -0.201      
C        C      0.843865000000     0.097590000000     0.540633333333    -0.201      
C        C      0.877495000000     0.306515000000     0.540733333333    -0.201      
C        C      0.902410000000     0.343865000000     0.540633333333    -0.201      
C        C      0.622505000000     0.193485000000     0.540733333333    -0.201      
C        C      0.597590000000     0.156135000000     0.540633333333    -0.201      
C        C      0.712500000000     0.134250000000     0.333333333333    -0.201      
C        C      0.636750000000     0.085000000000     0.333333333333    -0.201      
C        C      0.595750000000     0.058950000000     0.333333333333    -0.201      
C        C      0.556350000000     0.082200000000     0.333333333333    -0.201      
C        C      0.552900000000     0.129000000000     0.333333333333    -0.201      
C        C      0.510350000000     0.138700000000     0.333333333333    -0.201      
C        C      0.986000000000     0.099050000000     0.333333333333    -0.201      
C        C      0.787500000000     0.365750000000     0.333333333333    -0.201      
C        C      0.863250000000     0.415000000000     0.333333333333    -0.201      
C        C      0.904250000000     0.441050000000     0.333333333333    -0.201      
C        C      0.943650000000     0.417800000000     0.333333333333    -0.201      
C        C      0.947100000000     0.371000000000     0.333333333333    -0.201      
C        C      0.989650000000     0.361300000000     0.333333333333    -0.201      
C        C      0.514000000000     0.400950000000     0.333333333333    -0.201      
C        C      0.865750000000     0.212500000000     0.333333333333    -0.201      
C        C      0.915000000000     0.136750000000     0.333333333333    -0.201      
C        C      0.941050000000     0.095750000000     0.333333333333    -0.201      
C        C      0.917800000000     0.056350000000     0.333333333333    -0.201      
C        C      0.871000000000     0.052900000000     0.333333333333    -0.201      
C        C      0.861300000000     0.010350000000     0.333333333333    -0.201      
C        C      0.900950000000     0.486000000000     0.333333333333    -0.201      
C        C      0.634250000000     0.287500000000     0.333333333333    -0.201      
C        C      0.585000000000     0.363250000000     0.333333333333    -0.201      
C        C      0.558950000000     0.404250000000     0.333333333333    -0.201      
C        C      0.582200000000     0.443650000000     0.333333333333    -0.201      
C        C      0.629000000000     0.447100000000     0.333333333333    -0.201      
C        C      0.638700000000     0.489650000000     0.333333333333    -0.201      
C        C      0.599050000000     0.014000000000     0.333333333333    -0.201      
C        C      0.787500000000     0.134250000000     0.500000000000    -0.201      
C        C      0.863250000000     0.085000000000     0.500000000000    -0.201      
C        C      0.904250000000     0.058950000000     0.500000000000    -0.201      
C        C      0.943650000000     0.082200000000     0.500000000000    -0.201      
C        C      0.947100000000     0.129000000000     0.500000000000    -0.201      
C        C      0.989650000000     0.138700000000     0.500000000000    -0.201      
C        C      0.514000000000     0.099050000000     0.500000000000    -0.201      
C        C      0.712500000000     0.365750000000     0.500000000000    -0.201      
C        C      0.636750000000     0.415000000000     0.500000000000    -0.201      
C        C      0.595750000000     0.441050000000     0.500000000000    -0.201      
C        C      0.556350000000     0.417800000000     0.500000000000    -0.201      
C        C      0.552900000000     0.371000000000     0.500000000000    -0.201      
C        C      0.510350000000     0.361300000000     0.500000000000    -0.201      
C        C      0.986000000000     0.400950000000     0.500000000000    -0.201      
C        C      0.634250000000     0.212500000000     0.500000000000    -0.201      
C        C      0.585000000000     0.136750000000     0.500000000000    -0.201      
C        C      0.558950000000     0.095750000000     0.500000000000    -0.201      
C        C      0.582200000000     0.056350000000     0.500000000000    -0.201      
C        C      0.629000000000     0.052900000000     0.500000000000    -0.201      
C        C      0.638700000000     0.010350000000     0.500000000000    -0.201      
C        C      0.599050000000     0.486000000000     0.500000000000    -0.201      
C        C      0.865750000000     0.287500000000     0.500000000000    -0.201      
C        C      0.915000000000     0.363250000000     0.500000000000    -0.201      
C        C      0.941050000000     0.404250000000     0.500000000000    -0.201      
C        C      0.917800000000     0.443650000000     0.500000000000    -0.201      
C        C      0.871000000000     0.447100000000     0.500000000000    -0.201      
C        C      0.861300000000     0.489650000000     0.500000000000    -0.201      
C        C      0.900950000000     0.014000000000     0.500000000000    -0.201      
C        C      0.693485000000     0.122505000000     0.707400000000    -0.201      
C        C      0.656135000000     0.097590000000     0.707300000000    -0.201      
C        C      0.806515000000     0.377495000000     0.707400000000    -0.201      
C        C      0.843865000000     0.402410000000     0.707300000000    -0.201      
C        C      0.877495000000     0.193485000000     0.707400000000    -0.201      
C        C      0.902410000000     0.156135000000     0.707300000000    -0.201      
C        C      0.622505000000     0.306515000000     0.707400000000    -0.201      
C        C      0.597590000000     0.343865000000     0.707300000000    -0.201      
C        C      0.806515000000     0.122505000000     0.792600000000    -0.201      
C        C      0.843865000000     0.097590000000     0.792700000000    -0.201      
C        C      0.693485000000     0.377495000000     0.792600000000    -0.201      
C        C      0.656135000000     0.402410000000     0.792700000000    -0.201      
C        C      0.622505000000     0.193485000000     0.792600000000    -0.201      
C        C      0.597590000000     0.156135000000     0.792700000000    -0.201      
C        C      0.877495000000     0.306515000000     0.792600000000    -0.201      
C        C      0.902410000000     0.343865000000     0.792700000000    -0.201      
C        C      0.806515000000     0.377495000000     0.959266666667    -0.201      
C        C      0.843865000000     0.402410000000     0.959366666667    -0.201      
C        C      0.693485000000     0.122505000000     0.959266666667    -0.201      
C        C      0.656135000000     0.097590000000     0.959366666667    -0.201      
C        C      0.622505000000     0.306515000000     0.959266666667    -0.201      
C        C      0.597590000000     0.343865000000     0.959366666667    -0.201      
C        C      0.877495000000     0.193485000000     0.959266666667    -0.201      
C        C      0.902410000000     0.156135000000     0.959366666667    -0.201      
C        C      0.693485000000     0.377495000000     0.874066666667    -0.201      
C        C      0.656135000000     0.402410000000     0.873966666667    -0.201      
C        C      0.806515000000     0.122505000000     0.874066666667    -0.201      
C        C      0.843865000000     0.097590000000     0.873966666667    -0.201      
C        C      0.877495000000     0.306515000000     0.874066666667    -0.201      
C        C      0.902410000000     0.343865000000     0.873966666667    -0.201      
C        C      0.622505000000     0.193485000000     0.874066666667    -0.201      
C        C      0.597590000000     0.156135000000     0.873966666667    -0.201      
C        C      0.712500000000     0.134250000000     0.666666666667    -0.201      
C        C      0.636750000000     0.085000000000     0.666666666667    -0.201      
C        C      0.595750000000     0.058950000000     0.666666666667    -0.201      
C        C      0.556350000000     0.082200000000     0.666666666667    -0.201      
C        C      0.552900000000     0.129000000000     0.666666666667    -0.201      
C        C      0.510350000000     0.138700000000     0.666666666667    -0.201      
C        C      0.986000000000     0.099050000000     0.666666666667    -0.201      
C        C      0.787500000000     0.365750000000     0.666666666667    -0.201      
C        C      0.863250000000     0.415000000000     0.666666666667    -0.201      
C        C      0.904250000000     0.441050000000     0.666666666667    -0.201      
C        C      0.943650000000     0.417800000000     0.666666666667    -0.201      
C        C      0.947100000000     0.371000000000     0.666666666667    -0.201      
C        C      0.989650000000     0.361300000000     0.666666666667    -0.201      
C        C      0.514000000000     0.400950000000     0.666666666667    -0.201      
C        C      0.865750000000     0.212500000000     0.666666666667    -0.201      
C        C      0.915000000000     0.136750000000     0.666666666667    -0.201      
C        C      0.941050000000     0.095750000000     0.666666666667    -0.201      
C        C      0.917800000000     0.056350000000     0.666666666667    -0.201      
C        C      0.871000000000     0.052900000000     0.666666666667    -0.201      
C        C      0.861300000000     0.010350000000     0.666666666667    -0.201      
C        C      0.900950000000     0.486000000000     0.666666666667    -0.201      
C        C      0.634250000000     0.287500000000     0.666666666667    -0.201      
C        C      0.585000000000     0.363250000000     0.666666666667    -0.201      
C        C      0.558950000000     0.404250000000     0.666666666667    -0.201      
C        C      0.582200000000     0.443650000000     0.666666666667    -0.201      
C        C      0.629000000000     0.447100000000     0.666666666667    -0.201      
C        C      0.638700000000     0.489650000000     0.666666666667    -0.201      
C        C      0.599050000000     0.014000000000     0.666666666667    -0.201      
C        C      0.787500000000     0.134250000000     0.833333333333    -0.201      
C        C      0.863250000000     0.085000000000     0.833333333333    -0.201      
C        C      0.904250000000     0.058950000000     0.833333333333    -0.201      
C        C      0.943650000000     0.082200000000     0.833333333333    -0.201      
C        C      0.947100000000     0.129000000000     0.833333333333    -0.201      
C        C      0.989650000000     0.138700000000     0.833333333333    -0.201      
C        C      0.514000000000     0.099050000000     0.833333333333    -0.201      
C        C      0.712500000000     0.365750000000     0.833333333333    -0.201      
C        C      0.636750000000     0.415000000000     0.833333333333    -0.201      
C        C      0.595750000000     0.441050000000     0.833333333333    -0.201      
C        C      0.556350000000     0.417800000000     0.833333333333    -0.201      
C        C      0.552900000000     0.371000000000     0.833333333333    -0.201      
C        C      0.510350000000     0.361300000000     0.833333333333    -0.201      
C        C      0.986000000000     0.400950000000     0.833333333333    -0.201      
C        C      0.634250000000     0.212500000000     0.833333333333    -0.201      
C        C      0.585000000000     0.136750000000     0.833333333333    -0.201      
C        C      0.558950000000     0.095750000000     0.833333333333    -0.201      
C        C      0.582200000000     0.056350000000     0.833333333333    -0.201      
C        C      0.629000000000     0.052900000000     0.833333333333    -0.201      
C        C      0.638700000000     0.010350000000     0.833333333333    -0.201      
C        C      0.599050000000     0.486000000000     0.833333333333    -0.201      
C        C      0.865750000000     0.287500000000     0.833333333333    -0.201      
C        C      0.915000000000     0.363250000000     0.833333333333    -0.201      
C        C      0.941050000000     0.404250000000     0.833333333333    -0.201      
C        C      0.917800000000     0.443650000000     0.833333333333    -0.201      
C        C      0.871000000000     0.447100000000     0.833333333333    -0.201      
C        C      0.861300000000     0.489650000000     0.833333333333    -0.201      
C        C      0.900950000000     0.014000000000     0.833333333333    -0.201      
C        C      0.693485000000     0.622505000000     0.040733333333    -0.201      
C        C      0.656135000000     0.597590000000     0.040633333333    -0.201      
C        C      0.806515000000     0.877495000000     0.040733333333    -0.201      
C        C      0.843865000000     0.902410000000     0.040633333333    -0.201      
C        C      0.877495000000     0.693485000000     0.040733333333    -0.201      
C        C      0.902410000000     0.656135000000     0.040633333333    -0.201      
C        C      0.622505000000     0.806515000000     0.040733333333    -0.201      
C        C      0.597590000000     0.843865000000     0.040633333333    -0.201      
C        C      0.806515000000     0.622505000000     0.125933333333    -0.201      
C        C      0.843865000000     0.597590000000     0.126033333333    -0.201      
C        C      0.693485000000     0.877495000000     0.125933333333    -0.201      
C        C      0.656135000000     0.902410000000     0.126033333333    -0.201      
C        C      0.622505000000     0.693485000000     0.125933333333    -0.201      
C        C      0.597590000000     0.656135000000     0.126033333333    -0.201      
C        C      0.877495000000     0.806515000000     0.125933333333    -0.201      
C        C      0.902410000000     0.843865000000     0.126033333333    -0.201      
C        C      0.806515000000     0.877495000000     0.292600000000    -0.201      
C        C      0.843865000000     0.902410000000     0.292700000000    -0.201      
C        C      0.693485000000     0.622505000000     0.292600000000    -0.201      
C        C      0.656135000000     0.597590000000     0.292700000000    -0.201      
C        C      0.622505000000     0.806515000000     0.292600000000    -0.201      
C        C      0.597590000000     0.843865000000     0.292700000000    -0.201      
C        C      0.877495000000     0.693485000000     0.292600000000    -0.201      
C        C      0.902410000000     0.656135000000     0.292700000000    -0.201      
C        C      0.693485000000     0.877495000000     0.207400000000    -0.201      
C        C      0.656135000000     0.902410000000     0.207300000000    -0.201      
C        C      0.806515000000     0.622505000000     0.207400000000    -0.201      
C        C      0.843865000000     0.597590000000     0.207300000000    -0.201      
C        C      0.877495000000     0.806515000000     0.207400000000    -0.201      
C        C      0.902410000000     0.843865000000     0.207300000000    -0.201      
C        C      0.622505000000     0.693485000000     0.207400000000    -0.201      
C        C      0.597590000000     0.656135000000     0.207300000000    -0.201      
C        C      0.712500000000     0.634250000000     0.000000000000    -0.201      
C        C      0.636750000000     0.585000000000     0.000000000000    -0.201      
C        C      0.595750000000     0.558950000000     0.000000000000    -0.201      
C        C      0.556350000000     0.582200000000     0.000000000000    -0.201      
C        C      0.552900000000     0.629000000000     0.000000000000    -0.201      
C        C      0.510350000000     0.638700000000     0.000000000000    -0.201      
C        C      0.986000000000     0.599050000000     0.000000000000    -0.201      
C        C      0.787500000000     0.865750000000     0.000000000000    -0.201      
C        C      0.863250000000     0.915000000000     0.000000000000    -0.201      
C        C      0.904250000000     0.941050000000     0.000000000000    -0.201      
C        C      0.943650000000     0.917800000000     0.000000000000    -0.201      
C        C      0.947100000000     0.871000000000     0.000000000000    -0.201      
C        C      0.989650000000     0.861300000000     0.000000000000    -0.201      
C        C      0.514000000000     0.900950000000     0.000000000000    -0.201      
C        C      0.865750000000     0.712500000000     0.000000000000    -0.201      
C        C      0.915000000000     0.636750000000     0.000000000000    -0.201      
C        C      0.941050000000     0.595750000000     0.000000000000    -0.201      
C        C      0.917800000000     0.556350000000     0.000000000000    -0.201      
C        C      0.871000000000     0.552900000000     0.000000000000    -0.201      
C        C      0.861300000000     0.510350000000     0.000000000000    -0.201      
C        C      0.900950000000     0.986000000000     0.000000000000    -0.201      
C        C      0.634250000000     0.787500000000     0.000000000000    -0.201      
C        C      0.585000000000     0.863250000000     0.000000000000    -0.201      
C        C      0.558950000000     0.904250000000     0.000000000000    -0.201      
C        C      0.582200000000     0.943650000000     0.000000000000    -0.201      
C        C      0.629000000000     0.947100000000     0.000000000000    -0.201      
C        C      0.638700000000     0.989650000000     0.000000000000    -0.201      
C        C      0.599050000000     0.514000000000     0.000000000000    -0.201      
C        C      0.787500000000     0.634250000000     0.166666666667    -0.201      
C        C      0.863250000000     0.585000000000     0.166666666667    -0.201      
C        C      0.904250000000     0.558950000000     0.166666666667    -0.201      
C        C      0.943650000000     0.582200000000     0.166666666667    -0.201      
C        C      0.947100000000     0.629000000000     0.166666666667    -0.201      
C        C      0.989650000000     0.638700000000     0.166666666667    -0.201      
C        C      0.514000000000     0.599050000000     0.166666666667    -0.201      
C        C      0.712500000000     0.865750000000     0.166666666667    -0.201      
C        C      0.636750000000     0.915000000000     0.166666666667    -0.201      
C        C      0.595750000000     0.941050000000     0.166666666667    -0.201      
C        C      0.556350000000     0.917800000000     0.166666666667    -0.201      
C        C      0.552900000000     0.871000000000     0.166666666667    -0.201      
C        C      0.510350000000     0.861300000000     0.166666666667    -0.201      
C        C      0.986000000000     0.900950000000     0.166666666667    -0.201      
C        C      0.634250000000     0.712500000000     0.166666666667    -0.201      
C        C      0.585000000000     0.636750000000     0.166666666667    -0.201      
C        C      0.558950000000     0.595750000000     0.166666666667    -0.201      
C        C      0.582200000000     0.556350000000     0.166666666667    -0.201      
C        C      0.629000000000     0.552900000000     0.166666666667    -0.201      
C        C      0.638700000000     0.510350000000     0.166666666667    -0.201      
C        C      0.599050000000     0.986000000000     0.166666666667    -0.201      
C        C      0.865750000000     0.787500000000     0.166666666667    -0.201      
C        C      0.915000000000     0.863250000000     0.166666666667    -0.201      
C        C      0.941050000000     0.904250000000     0.166666666667    -0.201      
C        C      0.917800000000     0.943650000000     0.166666666667    -0.201      
C        C      0.871000000000     0.947100000000     0.166666666667    -0.201      
C        C      0.861300000000     0.989650000000     0.166666666667    -0.201      
C        C      0.900950000000     0.514000000000     0.166666666667    -0.201      
C        C      0.693485000000     0.622505000000     0.374066666667    -0.201      
C        C      0.656135000000     0.597590000000     0.373966666667    -0.201      
C        C      0.806515000000     0.877495000000     0.374066666667    -0.201      
C        C      0.843865000000     0.902410000000     0.373966666667    -0.201      
C        C      0.877495000000     0.693485000000     0.374066666667    -0.201      
C        C      0.902410000000     0.656135000000     0.373966666667    -0.201      
C        C      0.622505000000     0.806515000000     0.374066666667    -0.201      
C        C      0.597590000000     0.843865000000     0.373966666667    -0.201      
C        C      0.806515000000     0.622505000000     0.459266666667    -0.201      
C        C      0.843865000000     0.597590000000     0.459366666667    -0.201      
C        C      0.693485000000     0.877495000000     0.459266666667    -0.201      
C        C      0.656135000000     0.902410000000     0.459366666667    -0.201      
C        C      0.622505000000     0.693485000000     0.459266666667    -0.201      
C        C      0.597590000000     0.656135000000     0.459366666667    -0.201      
C        C      0.877495000000     0.806515000000     0.459266666667    -0.201      
C        C      0.902410000000     0.843865000000     0.459366666667    -0.201      
C        C      0.806515000000     0.877495000000     0.625933333333    -0.201      
C        C      0.843865000000     0.902410000000     0.626033333333    -0.201      
C        C      0.693485000000     0.622505000000     0.625933333333    -0.201      
C        C      0.656135000000     0.597590000000     0.626033333333    -0.201      
C        C      0.622505000000     0.806515000000     0.625933333333    -0.201      
C        C      0.597590000000     0.843865000000     0.626033333333    -0.201      
C        C      0.877495000000     0.693485000000     0.625933333333    -0.201      
C        C      0.902410000000     0.656135000000     0.626033333333    -0.201      
C        C      0.693485000000     0.877495000000     0.540733333333    -0.201      
C        C      0.656135000000     0.902410000000     0.540633333333    -0.201      
C        C      0.806515000000     0.622505000000     0.540733333333    -0.201      
C        C      0.843865000000     0.597590000000     0.540633333333    -0.201      
C        C      0.877495000000     0.806515000000     0.540733333333    -0.201      
C        C      0.902410000000     0.843865000000     0.540633333333    -0.201      
C        C      0.622505000000     0.693485000000     0.540733333333    -0.201      
C        C      0.597590000000     0.656135000000     0.540633333333    -0.201      
C        C      0.712500000000     0.634250000000     0.333333333333    -0.201      
C        C      0.636750000000     0.585000000000     0.333333333333    -0.201      
C        C      0.595750000000     0.558950000000     0.333333333333    -0.201      
C        C      0.556350000000     0.582200000000     0.333333333333    -0.201      
C        C      0.552900000000     0.629000000000     0.333333333333    -0.201      
C        C      0.510350000000     0.638700000000     0.333333333333    -0.201      
C        C      0.986000000000     0.599050000000     0.333333333333    -0.201      
C        C      0.787500000000     0.865750000000     0.333333333333    -0.201      
C        C      0.863250000000     0.915000000000     0.333333333333    -0.201      
C        C      0.904250000000     0.941050000000     0.333333333333    -0.201      
C        C      0.943650000000     0.917800000000     0.333333333333    -0.201      
C        C      0.947100000000     0.871000000000     0.333333333333    -0.201      
C        C      0.989650000000     0.861300000000     0.333333333333    -0.201      
C        C      0.514000000000     0.900950000000     0.333333333333    -0.201      
C        C      0.865750000000     0.712500000000     0.333333333333    -0.201      
C        C      0.915000000000     0.636750000000     0.333333333333    -0.201      
C        C      0.941050000000     0.595750000000     0.333333333333    -0.201      
C        C      0.917800000000     0.556350000000     0.333333333333    -0.201      
C        C      0.871000000000     0.552900000000     0.333333333333    -0.201      
C        C      0.861300000000     0.510350000000     0.333333333333    -0.201      
C        C      0.900950000000     0.986000000000     0.333333333333    -0.201      
C        C      0.634250000000     0.787500000000     0.333333333333    -0.201      
C        C      0.585000000000     0.863250000000     0.333333333333    -0.201      
C        C      0.558950000000     0.904250000000     0.333333333333    -0.201      
C        C      0.582200000000     0.943650000000     0.333333333333    -0.201      
C        C      0.629000000000     0.947100000000     0.333333333333    -0.201      
C        C      0.638700000000     0.989650000000     0.333333333333    -0.201      
C        C      0.599050000000     0.514000000000     0.333333333333    -0.201      
C        C      0.787500000000     0.634250000000     0.500000000000    -0.201      
C        C      0.863250000000     0.585000000000     0.500000000000    -0.201      
C        C      0.904250000000     0.558950000000     0.500000000000    -0.201      
C        C      0.943650000000     0.582200000000     0.500000000000    -0.201      
C        C      0.947100000000     0.629000000000     0.500000000000    -0.201      
C        C      0.989650000000     0.638700000000     0.500000000000    -0.201      
C        C      0.514000000000     0.599050000000     0.500000000000    -0.201      
C        C      0.712500000000     0.865750000000     0.500000000000    -0.201      
C        C      0.636750000000     0.915000000000     0.500000000000    -0.201      
C        C      0.595750000000     0.941050000000     0.500000000000    -0.201      
C        C      0.556350000000     0.917800000000     0.500000000000    -0.201      
C        C      0.552900000000     0.871000000000     0.500000000000    -0.201      
C        C      0.510350000000     0.861300000000     0.500000000000    -0.201      
C        C      0.986000000000     0.900950000000     0.500000000000    -0.201      
C        C      0.634250000000     0.712500000000     0.500000000000    -0.201      
C        C      0.585000000000     0.636750000000     0.500000000000    -0.201      
C        C      0.558950000000     0.595750000000     0.500000000000    -0.201      
C        C      0.582200000000     0.556350000000     0.500000000000    -0.201      
C        C      0.629000000000     0.552900000000     0.500000000000    -0.201      
C        C      0.638700000000     0.510350000000     0.500000000000    -0.201      
C        C      0.599050000000     0.986000000000     0.500000000000    -0.201      
C        C      0.865750000000     0.787500000000     0.500000000000    -0.201      
C        C      0.915000000000     0.863250000000     0.500000000000    -0.201      
C        C      0.941050000000     0.904250000000     0.500000000000    -0.201      
C        C      0.917800000000     0.943650000000     0.500000000000    -0.201      
C        C      0.871000000000     0.947100000000     0.500000000000    -0.201      
C        C      0.861300000000     0.989650000000     0.500000000000    -0.201      
C        C      0.900950000000     0.514000000000     0.500000000000    -0.201      
C        C      0.693485000000     0.622505000000     0.707400000000    -0.201      
C        C      0.656135000000     0.597590000000     0.707300000000    -0.201      
C        C      0.806515000000     0.877495000000     0.707400000000    -0.201      
C        C      0.843865000000     0.902410000000     0.707300000000    -0.201      
C        C      0.877495000000     0.693485000000     0.707400000000    -0.201      
C        C      0.902410000000     0.656135000000     0.707300000000    -0.201      
C        C      0.622505000000     0.806515000000     0.707400000000    -0.201      
C        C      0.597590000000     0.843865000000     0.707300000000    -0.201      
C        C      0.806515000000     0.622505000000     0.792600000000    -0.201      
C        C      0.843865000000     0.597590000000     0.792700000000    -0.201      
C        C      0.693485000000     0.877495000000     0.792600000000    -0.201      
C        C      0.656135000000     0.902410000000     0.792700000000    -0.201      
C        C      0.622505000000     0.693485000000     0.792600000000    -0.201      
C        C      0.597590000000     0.656135000000     0.792700000000    -0.201      
C        C      0.877495000000     0.806515000000     0.792600000000    -0.201      
C        C      0.902410000000     0.843865000000     0.792700000000    -0.201      
C        C      0.806515000000     0.877495000000     0.959266666667    -0.201      
C        C      0.843865000000     0.902410000000     0.959366666667    -0.201      
C        C      0.693485000000     0.622505000000     0.959266666667    -0.201      
C        C      0.656135000000     0.597590000000     0.959366666667    -0.201      
C        C      0.622505000000     0.806515000000     0.959266666667    -0.201      
C        C      0.597590000000     0.843865000000     0.959366666667    -0.201      
C        C      0.877495000000     0.693485000000     0.959266666667    -0.201      
C        C      0.902410000000     0.656135000000     0.959366666667    -0.201      
C        C      0.693485000000     0.877495000000     0.874066666667    -0.201      
C        C      0.656135000000     0.902410000000     0.873966666667    -0.201      
C        C      0.806515000000     0.622505000000     0.874066666667    -0.201      
C        C      0.843865000000     0.597590000000     0.873966666667    -0.201      
C        C      0.877495000000     0.806515000000     0.874066666667    -0.201      
C        C      0.902410000000     0.843865000000     0.873966666667    -0.201      
C        C      0.622505000000     0.693485000000     0.874066666667    -0.201      
C        C      0.597590000000     0.656135000000     0.873966666667    -0.201      
C        C      0.712500000000     0.634250000000     0.666666666667    -0.201      
C        C      0.636750000000     0.585000000000     0.666666666667    -0.201      
C        C      0.595750000000     0.558950000000     0.666666666667    -0.201      
C        C      0.556350000000     0.582200000000     0.666666666667    -0.201      
C        C      0.552900000000     0.629000000000     0.666666666667    -0.201      
C        C      0.510350000000     0.638700000000     0.666666666667    -0.201      
C        C      0.986000000000     0.599050000000     0.666666666667    -0.201      
C        C      0.787500000000     0.865750000000     0.666666666667    -0.201      
C        C      0.863250000000     0.915000000000     0.666666666667    -0.201      
C        C      0.904250000000     0.941050000000     0.666666666667    -0.201      
C        C      0.943650000000     0.917800000000     0.666666666667    -0.201      
C        C      0.947100000000     0.871000000000     0.666666666667    -0.201      
C        C      0.989650000000     0.861300000000     0.666666666667    -0.201      
C        C      0.514000000000     0.900950000000     0.666666666667    -0.201      
C        C      0.865750000000     0.712500000000     0.666666666667    -0.201      
C        C      0.915000000000     0.636750000000     0.666666666667    -0.201      
C        C      0.941050000000     0.595750000000     0.666666666667    -0.201      
C        C      0.917800000000     0.556350000000     0.666666666667    -0.201      
C        C      0.871000000000     0.552900000000     0.666666666667    -0.201      
C        C      0.861300000000     0.510350000000     0.666666666667    -0.201      
C        C      0.900950000000     0.986000000000     0.666666666667    -0.201      
C        C      0.634250000000     0.787500000000     0.666666666667    -0.201      
C        C      0.585000000000     0.863250000000     0.666666666667    -0.201      
C        C      0.558950000000     0.904250000000     0.666666666667    -0.201      
C        C      0.582200000000     0.943650000000     0.666666666667    -0.201      
C        C      0.629000000000     0.947100000000     0.666666666667    -0.201      
C        C      0.638700000000     0.989650000000     0.666666666667    -0.201      
C        C      0.599050000000     0.514000000000     0.666666666667    -0.201      
C        C      0.787500000000     0.634250000000     0.833333333333    -0.201      
C        C      0.863250000000     0.585000000000     0.833333333333    -0.201      
C        C      0.904250000000     0.558950000000     0.833333333333    -0.201      
C        C      0.943650000000     0.582200000000     0.833333333333    -0.201      
C        C      0.947100000000     0.629000000000     0.833333333333    -0.201      
C        C      0.989650000000     0.638700000000     0.833333333333    -0.201      
C        C      0.514000000000     0.599050000000     0.833333333333    -0.201      
C        C      0.712500000000     0.865750000000     0.833333333333    -0.201      
C        C      0.636750000000     0.915000000000     0.833333333333    -0.201      
C        C      0.595750000000     0.941050000000     0.833333333333    -0.201      
C        C      0.556350000000     0.917800000000     0.833333333333    -0.201      
C        C      0.552900000000     0.871000000000     0.833333333333    -0.201      
C        C      0.510350000000     0.861300000000     0.833333333333    -0.201      
C        C      0.986000000000     0.900950000000     0.833333333333    -0.201      
C        C      0.634250000000     0.712500000000     0.833333333333    -0.201      
C        C      0.585000000000     0.636750000000     0.833333333333    -0.201      
C        C      0.558950000000     0.595750000000     0.833333333333    -0.201      
C        C      0.582200000000     0.556350000000     0.833333333333    -0.201      
C        C      0.629000000000     0.552900000000     0.833333333333    -0.201      
C        C      0.638700000000     0.510350000000     0.833333333333    -0.201      
C        C      0.599050000000     0.986000000000     0.833333333333    -0.201      
C        C      0.865750000000     0.787500000000     0.833333333333    -0.201      
C        C      0.915000000000     0.863250000000     0.833333333333    -0.201      
C        C      0.941050000000     0.904250000000     0.833333333333    -0.201      
C        C      0.917800000000     0.943650000000     0.833333333333    -0.201      
C        C      0.871000000000     0.947100000000     0.833333333333    -0.201      
C        C      0.861300000000     0.989650000000     0.833333333333    -0.201      
C        C      0.900950000000     0.514000000000     0.833333333333    -0.201      
H        H      0.205800000000     0.131350000000     0.068000000000     0.111      
H        H      0.143800000000     0.089100000000     0.068000000000     0.111      
H        H      0.294200000000     0.368650000000     0.068000000000     0.111      
H        H      0.356200000000     0.410900000000     0.068000000000     0.111      
H        H      0.368650000000     0.205800000000     0.068000000000     0.111      
H        H      0.410900000000     0.143800000000     0.068000000000     0.111      
H        H      0.131350000000     0.294200000000     0.068000000000     0.111      
H        H      0.089100000000     0.356200000000     0.068000000000     0.111      
H        H      0.294200000000     0.131350000000     0.098666666667     0.111      
H        H      0.356200000000     0.089100000000     0.098666666667     0.111      
H        H      0.205800000000     0.368650000000     0.098666666667     0.111      
H        H      0.143800000000     0.410900000000     0.098666666667     0.111      
H        H      0.131350000000     0.205800000000     0.098666666667     0.111      
H        H      0.089100000000     0.143800000000     0.098666666667     0.111      
H        H      0.368650000000     0.294200000000     0.098666666667     0.111      
H        H      0.410900000000     0.356200000000     0.098666666667     0.111      
H        H      0.294200000000     0.368650000000     0.265333333333     0.111      
H        H      0.356200000000     0.410900000000     0.265333333333     0.111      
H        H      0.205800000000     0.131350000000     0.265333333333     0.111      
H        H      0.143800000000     0.089100000000     0.265333333333     0.111      
H        H      0.131350000000     0.294200000000     0.265333333333     0.111      
H        H      0.089100000000     0.356200000000     0.265333333333     0.111      
H        H      0.368650000000     0.205800000000     0.265333333333     0.111      
H        H      0.410900000000     0.143800000000     0.265333333333     0.111      
H        H      0.205800000000     0.368650000000     0.234666666667     0.111      
H        H      0.143800000000     0.410900000000     0.234666666667     0.111      
H        H      0.294200000000     0.131350000000     0.234666666667     0.111      
H        H      0.356200000000     0.089100000000     0.234666666667     0.111      
H        H      0.368650000000     0.294200000000     0.234666666667     0.111      
H        H      0.410900000000     0.356200000000     0.234666666667     0.111      
H        H      0.131350000000     0.205800000000     0.234666666667     0.111      
H        H      0.089100000000     0.143800000000     0.234666666667     0.111      
H        H      0.075800000000     0.148700000000     0.000000000000     0.111      
H        H      0.498600000000     0.166550000000     0.000000000000     0.111      
H        H      0.424200000000     0.351300000000     0.000000000000     0.111      
H        H      0.001400000000     0.333450000000     0.000000000000     0.111      
H        H      0.351300000000     0.075800000000     0.000000000000     0.111      
H        H      0.333450000000     0.498600000000     0.000000000000     0.111      
H        H      0.148700000000     0.424200000000     0.000000000000     0.111      
H        H      0.166550000000     0.001400000000     0.000000000000     0.111      
H        H      0.424200000000     0.148700000000     0.166666666667     0.111      
H        H      0.001400000000     0.166550000000     0.166666666667     0.111      
H        H      0.075800000000     0.351300000000     0.166666666667     0.111      
H        H      0.498600000000     0.333450000000     0.166666666667     0.111      
H        H      0.148700000000     0.075800000000     0.166666666667     0.111      
H        H      0.166550000000     0.498600000000     0.166666666667     0.111      
H        H      0.351300000000     0.424200000000     0.166666666667     0.111      
H        H      0.333450000000     0.001400000000     0.166666666667     0.111      
H        H      0.205800000000     0.131350000000     0.401333333333     0.111      
H        H      0.143800000000     0.089100000000     0.401333333333     0.111      
H        H      0.294200000000     0.368650000000     0.401333333333     0.111      
H        H      0.356200000000     0.410900000000     0.401333333333     0.111      
H        H      0.368650000000     0.205800000000     0.401333333333     0.111      
H        H      0.410900000000     0.143800000000     0.401333333333     0.111      
H        H      0.131350000000     0.294200000000     0.401333333333     0.111      
H        H      0.089100000000     0.356200000000     0.401333333333     0.111      
H        H      0.294200000000     0.131350000000     0.432000000000     0.111      
H        H      0.356200000000     0.089100000000     0.432000000000     0.111      
H        H      0.205800000000     0.368650000000     0.432000000000     0.111      
H        H      0.143800000000     0.410900000000     0.432000000000     0.111      
H        H      0.131350000000     0.205800000000     0.432000000000     0.111      
H        H      0.089100000000     0.143800000000     0.432000000000     0.111      
H        H      0.368650000000     0.294200000000     0.432000000000     0.111      
H        H      0.410900000000     0.356200000000     0.432000000000     0.111      
H        H      0.294200000000     0.368650000000     0.598666666667     0.111      
H        H      0.356200000000     0.410900000000     0.598666666667     0.111      
H        H      0.205800000000     0.131350000000     0.598666666667     0.111      
H        H      0.143800000000     0.089100000000     0.598666666667     0.111      
H        H      0.131350000000     0.294200000000     0.598666666667     0.111      
H        H      0.089100000000     0.356200000000     0.598666666667     0.111      
H        H      0.368650000000     0.205800000000     0.598666666667     0.111      
H        H      0.410900000000     0.143800000000     0.598666666667     0.111      
H        H      0.205800000000     0.368650000000     0.568000000000     0.111      
H        H      0.143800000000     0.410900000000     0.568000000000     0.111      
H        H      0.294200000000     0.131350000000     0.568000000000     0.111      
H        H      0.356200000000     0.089100000000     0.568000000000     0.111      
H        H      0.368650000000     0.294200000000     0.568000000000     0.111      
H        H      0.410900000000     0.356200000000     0.568000000000     0.111      
H        H      0.131350000000     0.205800000000     0.568000000000     0.111      
H        H      0.089100000000     0.143800000000     0.568000000000     0.111      
H        H      0.075800000000     0.148700000000     0.333333333333     0.111      
H        H      0.498600000000     0.166550000000     0.333333333333     0.111      
H        H      0.424200000000     0.351300000000     0.333333333333     0.111      
H        H      0.001400000000     0.333450000000     0.333333333333     0.111      
H        H      0.351300000000     0.075800000000     0.333333333333     0.111      
H        H      0.333450000000     0.498600000000     0.333333333333     0.111      
H        H      0.148700000000     0.424200000000     0.333333333333     0.111      
H        H      0.166550000000     0.001400000000     0.333333333333     0.111      
H        H      0.424200000000     0.148700000000     0.500000000000     0.111      
H        H      0.001400000000     0.166550000000     0.500000000000     0.111      
H        H      0.075800000000     0.351300000000     0.500000000000     0.111      
H        H      0.498600000000     0.333450000000     0.500000000000     0.111      
H        H      0.148700000000     0.075800000000     0.500000000000     0.111      
H        H      0.166550000000     0.498600000000     0.500000000000     0.111      
H        H      0.351300000000     0.424200000000     0.500000000000     0.111      
H        H      0.333450000000     0.001400000000     0.500000000000     0.111      
H        H      0.205800000000     0.131350000000     0.734666666667     0.111      
H        H      0.143800000000     0.089100000000     0.734666666667     0.111      
H        H      0.294200000000     0.368650000000     0.734666666667     0.111      
H        H      0.356200000000     0.410900000000     0.734666666667     0.111      
H        H      0.368650000000     0.205800000000     0.734666666667     0.111      
H        H      0.410900000000     0.143800000000     0.734666666667     0.111      
H        H      0.131350000000     0.294200000000     0.734666666667     0.111      
H        H      0.089100000000     0.356200000000     0.734666666667     0.111      
H        H      0.294200000000     0.131350000000     0.765333333333     0.111      
H        H      0.356200000000     0.089100000000     0.765333333333     0.111      
H        H      0.205800000000     0.368650000000     0.765333333333     0.111      
H        H      0.143800000000     0.410900000000     0.765333333333     0.111      
H        H      0.131350000000     0.205800000000     0.765333333333     0.111      
H        H      0.089100000000     0.143800000000     0.765333333333     0.111      
H        H      0.368650000000     0.294200000000     0.765333333333     0.111      
H        H      0.410900000000     0.356200000000     0.765333333333     0.111      
H        H      0.294200000000     0.368650000000     0.932000000000     0.111      
H        H      0.356200000000     0.410900000000     0.932000000000     0.111      
H        H      0.205800000000     0.131350000000     0.932000000000     0.111      
H        H      0.143800000000     0.089100000000     0.932000000000     0.111      
H        H      0.131350000000     0.294200000000     0.932000000000     0.111      
H        H      0.089100000000     0.356200000000     0.932000000000     0.111      
H        H      0.368650000000     0.205800000000     0.932000000000     0.111      
H        H      0.410900000000     0.143800000000     0.932000000000     0.111      
H        H      0.205800000000     0.368650000000     0.901333333333     0.111      
H        H      0.143800000000     0.410900000000     0.901333333333     0.111      
H        H      0.294200000000     0.131350000000     0.901333333333     0.111      
H        H      0.356200000000     0.089100000000     0.901333333333     0.111      
H        H      0.368650000000     0.294200000000     0.901333333333     0.111      
H        H      0.410900000000     0.356200000000     0.901333333333     0.111      
H        H      0.131350000000     0.205800000000     0.901333333333     0.111      
H        H      0.089100000000     0.143800000000     0.901333333333     0.111      
H        H      0.075800000000     0.148700000000     0.666666666667     0.111      
H        H      0.498600000000     0.166550000000     0.666666666667     0.111      
H        H      0.424200000000     0.351300000000     0.666666666667     0.111      
H        H      0.001400000000     0.333450000000     0.666666666667     0.111      
H        H      0.351300000000     0.075800000000     0.666666666667     0.111      
H        H      0.333450000000     0.498600000000     0.666666666667     0.111      
H        H      0.148700000000     0.424200000000     0.666666666667     0.111      
H        H      0.166550000000     0.001400000000     0.666666666667     0.111      
H        H      0.424200000000     0.148700000000     0.833333333333     0.111      
H        H      0.001400000000     0.166550000000     0.833333333333     0.111      
H        H      0.075800000000     0.351300000000     0.833333333333     0.111      
H        H      0.498600000000     0.333450000000     0.833333333333     0.111      
H        H      0.148700000000     0.075800000000     0.833333333333     0.111      
H        H      0.166550000000     0.498600000000     0.833333333333     0.111      
H        H      0.351300000000     0.424200000000     0.833333333333     0.111      
H        H      0.333450000000     0.001400000000     0.833333333333     0.111      
H        H      0.205800000000     0.631350000000     0.068000000000     0.111      
H        H      0.143800000000     0.589100000000     0.068000000000     0.111      
H        H      0.294200000000     0.868650000000     0.068000000000     0.111      
H        H      0.356200000000     0.910900000000     0.068000000000     0.111      
H        H      0.368650000000     0.705800000000     0.068000000000     0.111      
H        H      0.410900000000     0.643800000000     0.068000000000     0.111      
H        H      0.131350000000     0.794200000000     0.068000000000     0.111      
H        H      0.089100000000     0.856200000000     0.068000000000     0.111      
H        H      0.294200000000     0.631350000000     0.098666666667     0.111      
H        H      0.356200000000     0.589100000000     0.098666666667     0.111      
H        H      0.205800000000     0.868650000000     0.098666666667     0.111      
H        H      0.143800000000     0.910900000000     0.098666666667     0.111      
H        H      0.131350000000     0.705800000000     0.098666666667     0.111      
H        H      0.089100000000     0.643800000000     0.098666666667     0.111      
H        H      0.368650000000     0.794200000000     0.098666666667     0.111      
H        H      0.410900000000     0.856200000000     0.098666666667     0.111      
H        H      0.294200000000     0.868650000000     0.265333333333     0.111      
H        H      0.356200000000     0.910900000000     0.265333333333     0.111      
H        H      0.205800000000     0.631350000000     0.265333333333     0.111      
H        H      0.143800000000     0.589100000000     0.265333333333     0.111      
H        H      0.131350000000     0.794200000000     0.265333333333     0.111      
H        H      0.089100000000     0.856200000000     0.265333333333     0.111      
H        H      0.368650000000     0.705800000000     0.265333333333     0.111      
H        H      0.410900000000     0.643800000000     0.265333333333     0.111      
H        H      0.205800000000     0.868650000000     0.234666666667     0.111      
H        H      0.143800000000     0.910900000000     0.234666666667     0.111      
H        H      0.294200000000     0.631350000000     0.234666666667     0.111      
H        H      0.356200000000     0.589100000000     0.234666666667     0.111      
H        H      0.368650000000     0.794200000000     0.234666666667     0.111      
H        H      0.410900000000     0.856200000000     0.234666666667     0.111      
H        H      0.131350000000     0.705800000000     0.234666666667     0.111      
H        H      0.089100000000     0.643800000000     0.234666666667     0.111      
H        H      0.075800000000     0.648700000000     0.000000000000     0.111      
H        H      0.498600000000     0.666550000000     0.000000000000     0.111      
H        H      0.424200000000     0.851300000000     0.000000000000     0.111      
H        H      0.001400000000     0.833450000000     0.000000000000     0.111      
H        H      0.351300000000     0.575800000000     0.000000000000     0.111      
H        H      0.333450000000     0.998600000000     0.000000000000     0.111      
H        H      0.148700000000     0.924200000000     0.000000000000     0.111      
H        H      0.166550000000     0.501400000000     0.000000000000     0.111      
H        H      0.424200000000     0.648700000000     0.166666666667     0.111      
H        H      0.001400000000     0.666550000000     0.166666666667     0.111      
H        H      0.075800000000     0.851300000000     0.166666666667     0.111      
H        H      0.498600000000     0.833450000000     0.166666666667     0.111      
H        H      0.148700000000     0.575800000000     0.166666666667     0.111      
H        H      0.166550000000     0.998600000000     0.166666666667     0.111      
H        H      0.351300000000     0.924200000000     0.166666666667     0.111      
H        H      0.333450000000     0.501400000000     0.166666666667     0.111      
H        H      0.205800000000     0.631350000000     0.401333333333     0.111      
H        H      0.143800000000     0.589100000000     0.401333333333     0.111      
H        H      0.294200000000     0.868650000000     0.401333333333     0.111      
H        H      0.356200000000     0.910900000000     0.401333333333     0.111      
H        H      0.368650000000     0.705800000000     0.401333333333     0.111      
H        H      0.410900000000     0.643800000000     0.401333333333     0.111      
H        H      0.131350000000     0.794200000000     0.401333333333     0.111      
H        H      0.089100000000     0.856200000000     0.401333333333     0.111      
H        H      0.294200000000     0.631350000000     0.432000000000     0.111      
H        H      0.356200000000     0.589100000000     0.432000000000     0.111      
H        H      0.205800000000     0.868650000000     0.432000000000     0.111      
H        H      0.143800000000     0.910900000000     0.432000000000     0.111      
H        H      0.131350000000     0.705800000000     0.432000000000     0.111      
H        H      0.089100000000     0.643800000000     0.432000000000     0.111      
H        H      0.368650000000     0.794200000000     0.432000000000     0.111      
H        H      0.410900000000     0.856200000000     0.432000000000     0.111      
H        H      0.294200000000     0.868650000000     0.598666666667     0.111      
H        H      0.356200000000     0.910900000000     0.598666666667     0.111      
H        H      0.205800000000     0.631350000000     0.598666666667     0.111      
H        H      0.143800000000     0.589100000000     0.598666666667     0.111      
H        H      0.131350000000     0.794200000000     0.598666666667     0.111      
H        H      0.089100000000     0.856200000000     0.598666666667     0.111      
H        H      0.368650000000     0.705800000000     0.598666666667     0.111      
H        H      0.410900000000     0.643800000000     0.598666666667     0.111      
H        H      0.205800000000     0.868650000000     0.568000000000     0.111      
H        H      0.143800000000     0.910900000000     0.568000000000     0.111      
H        H      0.294200000000     0.631350000000     0.568000000000     0.111      
H        H      0.356200000000     0.589100000000     0.568000000000     0.111      
H        H      0.368650000000     0.794200000000     0.568000000000     0.111      
H        H      0.410900000000     0.856200000000     0.568000000000     0.111      
H        H      0.131350000000     0.705800000000     0.568000000000     0.111      
H        H      0.089100000000     0.643800000000     0.568000000000     0.111      
H        H      0.075800000000     0.648700000000     0.333333333333     0.111      
H        H      0.498600000000     0.666550000000     0.333333333333     0.111      
H        H      0.424200000000     0.851300000000     0.333333333333     0.111      
H        H      0.001400000000     0.833450000000     0.333333333333     0.111      
H        H      0.351300000000     0.575800000000     0.333333333333     0.111      
H        H      0.333450000000     0.998600000000     0.333333333333     0.111      
H        H      0.148700000000     0.924200000000     0.333333333333     0.111      
H        H      0.166550000000     0.501400000000     0.333333333333     0.111      
H        H      0.424200000000     0.648700000000     0.500000000000     0.111      
H        H      0.001400000000     0.666550000000     0.500000000000     0.111      
H        H      0.075800000000     0.851300000000     0.500000000000     0.111      
H        H      0.498600000000     0.833450000000     0.500000000000     0.111      
H        H      0.148700000000     0.575800000000     0.500000000000     0.111      
H        H      0.166550000000     0.998600000000     0.500000000000     0.111      
H        H      0.351300000000     0.924200000000     0.500000000000     0.111      
H        H      0.333450000000     0.501400000000     0.500000000000     0.111      
H        H      0.205800000000     0.631350000000     0.734666666667     0.111      
H        H      0.143800000000     0.589100000000     0.734666666667     0.111      
H        H      0.294200000000     0.868650000000     0.734666666667     0.111      
H        H      0.356200000000     0.910900000000     0.734666666667     0.111      
H        H      0.368650000000     0.705800000000     0.734666666667     0.111      
H        H      0.410900000000     0.643800000000     0.734666666667     0.111      
H        H      0.131350000000     0.794200000000     0.734666666667     0.111      
H        H      0.089100000000     0.856200000000     0.734666666667     0.111      
H        H      0.294200000000     0.631350000000     0.765333333333     0.111      
H        H      0.356200000000     0.589100000000     0.765333333333     0.111      
H        H      0.205800000000     0.868650000000     0.765333333333     0.111      
H        H      0.143800000000     0.910900000000     0.765333333333     0.111      
H        H      0.131350000000     0.705800000000     0.765333333333     0.111      
H        H      0.089100000000     0.643800000000     0.765333333333     0.111      
H        H      0.368650000000     0.794200000000     0.765333333333     0.111      
H        H      0.410900000000     0.856200000000     0.765333333333     0.111      
H        H      0.294200000000     0.868650000000     0.932000000000     0.111      
H        H      0.356200000000     0.910900000000     0.932000000000     0.111      
H        H      0.205800000000     0.631350000000     0.932000000000     0.111      
H        H      0.143800000000     0.589100000000     0.932000000000     0.111      
H        H      0.131350000000     0.794200000000     0.932000000000     0.111      
H        H      0.089100000000     0.856200000000     0.932000000000     0.111      
H        H      0.368650000000     0.705800000000     0.932000000000     0.111      
H        H      0.410900000000     0.643800000000     0.932000000000     0.111      
H        H      0.205800000000     0.868650000000     0.901333333333     0.111      
H        H      0.143800000000     0.910900000000     0.901333333333     0.111      
H        H      0.294200000000     0.631350000000     0.901333333333     0.111      
H        H      0.356200000000     0.589100000000     0.901333333333     0.111      
H        H      0.368650000000     0.794200000000     0.901333333333     0.111      
H        H      0.410900000000     0.856200000000     0.901333333333     0.111      
H        H      0.131350000000     0.705800000000     0.901333333333     0.111      
H        H      0.089100000000     0.643800000000     0.901333333333     0.111      
H        H      0.075800000000     0.648700000000     0.666666666667     0.111      
H        H      0.498600000000     0.666550000000     0.666666666667     0.111      
H        H      0.424200000000     0.851300000000     0.666666666667     0.111      
H        H      0.001400000000     0.833450000000     0.666666666667     0.111      
H        H      0.351300000000     0.575800000000     0.666666666667     0.111      
H        H      0.333450000000     0.998600000000     0.666666666667     0.111      
H        H      0.148700000000     0.924200000000     0.666666666667     0.111      
H        H      0.166550000000     0.501400000000     0.666666666667     0.111      
H        H      0.424200000000     0.648700000000     0.833333333333     0.111      
H        H      0.001400000000     0.666550000000     0.833333333333     0.111      
H        H      0.075800000000     0.851300000000     0.833333333333     0.111      
H        H      0.498600000000     0.833450000000     0.833333333333     0.111      
H        H      0.148700000000     0.575800000000     0.833333333333     0.111      
H        H      0.166550000000     0.998600000000     0.833333333333     0.111      
H        H      0.351300000000     0.924200000000     0.833333333333     0.111      
H        H      0.333450000000     0.501400000000     0.833333333333     0.111      
H        H      0.705800000000     0.131350000000     0.068000000000     0.111      
H        H      0.643800000000     0.089100000000     0.068000000000     0.111      
H        H      0.794200000000     0.368650000000     0.068000000000     0.111      
H        H      0.856200000000     0.410900000000     0.068000000000     0.111      
H        H      0.868650000000     0.205800000000     0.068000000000     0.111      
H        H      0.910900000000     0.143800000000     0.068000000000     0.111      
H        H      0.631350000000     0.294200000000     0.068000000000     0.111      
H        H      0.589100000000     0.356200000000     0.068000000000     0.111      
H        H      0.794200000000     0.131350000000     0.098666666667     0.111      
H        H      0.856200000000     0.089100000000     0.098666666667     0.111      
H        H      0.705800000000     0.368650000000     0.098666666667     0.111      
H        H      0.643800000000     0.410900000000     0.098666666667     0.111      
H        H      0.631350000000     0.205800000000     0.098666666667     0.111      
H        H      0.589100000000     0.143800000000     0.098666666667     0.111      
H        H      0.868650000000     0.294200000000     0.098666666667     0.111      
H        H      0.910900000000     0.356200000000     0.098666666667     0.111      
H        H      0.794200000000     0.368650000000     0.265333333333     0.111      
H        H      0.856200000000     0.410900000000     0.265333333333     0.111      
H        H      0.705800000000     0.131350000000     0.265333333333     0.111      
H        H      0.643800000000     0.089100000000     0.265333333333     0.111      
H        H      0.631350000000     0.294200000000     0.265333333333     0.111      
H        H      0.589100000000     0.356200000000     0.265333333333     0.111      
H        H      0.868650000000     0.205800000000     0.265333333333     0.111      
H        H      0.910900000000     0.143800000000     0.265333333333     0.111      
H        H      0.705800000000     0.368650000000     0.234666666667     0.111      
H        H      0.643800000000     0.410900000000     0.234666666667     0.111      
H        H      0.794200000000     0.131350000000     0.234666666667     0.111      
H        H      0.856200000000     0.089100000000     0.234666666667     0.111      
H        H      0.868650000000     0.294200000000     0.234666666667     0.111      
H        H      0.910900000000     0.356200000000     0.234666666667     0.111      
H        H      0.631350000000     0.205800000000     0.234666666667     0.111      
H        H      0.589100000000     0.143800000000     0.234666666667     0.111      
H        H      0.575800000000     0.148700000000     0.000000000000     0.111      
H        H      0.998600000000     0.166550000000     0.000000000000     0.111      
H        H      0.924200000000     0.351300000000     0.000000000000     0.111      
H        H      0.501400000000     0.333450000000     0.000000000000     0.111      
H        H      0.851300000000     0.075800000000     0.000000000000     0.111      
H        H      0.833450000000     0.498600000000     0.000000000000     0.111      
H        H      0.648700000000     0.424200000000     0.000000000000     0.111      
H        H      0.666550000000     0.001400000000     0.000000000000     0.111      
H        H      0.924200000000     0.148700000000     0.166666666667     0.111      
H        H      0.501400000000     0.166550000000     0.166666666667     0.111      
H        H      0.575800000000     0.351300000000     0.166666666667     0.111      
H        H      0.998600000000     0.333450000000     0.166666666667     0.111      
H        H      0.648700000000     0.075800000000     0.166666666667     0.111      
H        H      0.666550000000     0.498600000000     0.166666666667     0.111      
H        H      0.851300000000     0.424200000000     0.166666666667     0.111      
H        H      0.833450000000     0.001400000000     0.166666666667     0.111      
H        H      0.705800000000     0.131350000000     0.401333333333     0.111      
H        H      0.643800000000     0.089100000000     0.401333333333     0.111      
H        H      0.794200000000     0.368650000000     0.401333333333     0.111      
H        H      0.856200000000     0.410900000000     0.401333333333     0.111      
H        H      0.868650000000     0.205800000000     0.401333333333     0.111      
H        H      0.910900000000     0.143800000000     0.401333333333     0.111      
H        H      0.631350000000     0.294200000000     0.401333333333     0.111      
H        H      0.589100000000     0.356200000000     0.401333333333     0.111      
H        H      0.794200000000     0.131350000000     0.432000000000     0.111      
H        H      0.856200000000     0.089100000000     0.432000000000     0.111      
H        H      0.705800000000     0.368650000000     0.432000000000     0.111      
H        H      0.643800000000     0.410900000000     0.432000000000     0.111      
H        H      0.631350000000     0.205800000000     0.432000000000     0.111      
H        H      0.589100000000     0.143800000000     0.432000000000     0.111      
H        H      0.868650000000     0.294200000000     0.432000000000     0.111      
H        H      0.910900000000     0.356200000000     0.432000000000     0.111      
H        H      0.794200000000     0.368650000000     0.598666666667     0.111      
H        H      0.856200000000     0.410900000000     0.598666666667     0.111      
H        H      0.705800000000     0.131350000000     0.598666666667     0.111      
H        H      0.643800000000     0.089100000000     0.598666666667     0.111      
H        H      0.631350000000     0.294200000000     0.598666666667     0.111      
H        H      0.589100000000     0.356200000000     0.598666666667     0.111      
H        H      0.868650000000     0.205800000000     0.598666666667     0.111      
H        H      0.910900000000     0.143800000000     0.598666666667     0.111      
H        H      0.705800000000     0.368650000000     0.568000000000     0.111      
H        H      0.643800000000     0.410900000000     0.568000000000     0.111      
H        H      0.794200000000     0.131350000000     0.568000000000     0.111      
H        H      0.856200000000     0.089100000000     0.568000000000     0.111      
H        H      0.868650000000     0.294200000000     0.568000000000     0.111      
H        H      0.910900000000     0.356200000000     0.568000000000     0.111      
H        H      0.631350000000     0.205800000000     0.568000000000     0.111      
H        H      0.589100000000     0.143800000000     0.568000000000     0.111      
H        H      0.575800000000     0.148700000000     0.333333333333     0.111      
H        H      0.998600000000     0.166550000000     0.333333333333     0.111      
H        H      0.924200000000     0.351300000000     0.333333333333     0.111      
H        H      0.501400000000     0.333450000000     0.333333333333     0.111      
H        H      0.851300000000     0.075800000000     0.333333333333     0.111      
H        H      0.833450000000     0.498600000000     0.333333333333     0.111      
H        H      0.648700000000     0.424200000000     0.333333333333     0.111      
H        H      0.666550000000     0.001400000000     0.333333333333     0.111      
H        H      0.924200000000     0.148700000000     0.500000000000     0.111      
H        H      0.501400000000     0.166550000000     0.500000000000     0.111      
H        H      0.575800000000     0.351300000000     0.500000000000     0.111      
H        H      0.998600000000     0.333450000000     0.500000000000     0.111      
H        H      0.648700000000     0.075800000000     0.500000000000     0.111      
H        H      0.666550000000     0.498600000000     0.500000000000     0.111      
H        H      0.851300000000     0.424200000000     0.500000000000     0.111      
H        H      0.833450000000     0.001400000000     0.500000000000     0.111      
H        H      0.705800000000     0.131350000000     0.734666666667     0.111      
H        H      0.643800000000     0.089100000000     0.734666666667     0.111      
H        H      0.794200000000     0.368650000000     0.734666666667     0.111      
H        H      0.856200000000     0.410900000000     0.734666666667     0.111      
H        H      0.868650000000     0.205800000000     0.734666666667     0.111      
H        H      0.910900000000     0.143800000000     0.734666666667     0.111      
H        H      0.631350000000     0.294200000000     0.734666666667     0.111      
H        H      0.589100000000     0.356200000000     0.734666666667     0.111      
H        H      0.794200000000     0.131350000000     0.765333333333     0.111      
H        H      0.856200000000     0.089100000000     0.765333333333     0.111      
H        H      0.705800000000     0.368650000000     0.765333333333     0.111      
H        H      0.643800000000     0.410900000000     0.765333333333     0.111      
H        H      0.631350000000     0.205800000000     0.765333333333     0.111      
H        H      0.589100000000     0.143800000000     0.765333333333     0.111      
H        H      0.868650000000     0.294200000000     0.765333333333     0.111      
H        H      0.910900000000     0.356200000000     0.765333333333     0.111      
H        H      0.794200000000     0.368650000000     0.932000000000     0.111      
H        H      0.856200000000     0.410900000000     0.932000000000     0.111      
H        H      0.705800000000     0.131350000000     0.932000000000     0.111      
H        H      0.643800000000     0.089100000000     0.932000000000     0.111      
H        H      0.631350000000     0.294200000000     0.932000000000     0.111      
H        H      0.589100000000     0.356200000000     0.932000000000     0.111      
H        H      0.868650000000     0.205800000000     0.932000000000     0.111      
H        H      0.910900000000     0.143800000000     0.932000000000     0.111      
H        H      0.705800000000     0.368650000000     0.901333333333     0.111      
H        H      0.643800000000     0.410900000000     0.901333333333     0.111      
H        H      0.794200000000     0.131350000000     0.901333333333     0.111      
H        H      0.856200000000     0.089100000000     0.901333333333     0.111      
H        H      0.868650000000     0.294200000000     0.901333333333     0.111      
H        H      0.910900000000     0.356200000000     0.901333333333     0.111      
H        H      0.631350000000     0.205800000000     0.901333333333     0.111      
H        H      0.589100000000     0.143800000000     0.901333333333     0.111      
H        H      0.575800000000     0.148700000000     0.666666666667     0.111      
H        H      0.998600000000     0.166550000000     0.666666666667     0.111      
H        H      0.924200000000     0.351300000000     0.666666666667     0.111      
H        H      0.501400000000     0.333450000000     0.666666666667     0.111      
H        H      0.851300000000     0.075800000000     0.666666666667     0.111      
H        H      0.833450000000     0.498600000000     0.666666666667     0.111      
H        H      0.648700000000     0.424200000000     0.666666666667     0.111      
H        H      0.666550000000     0.001400000000     0.666666666667     0.111      
H        H      0.924200000000     0.148700000000     0.833333333333     0.111      
H        H      0.501400000000     0.166550000000     0.833333333333     0.111      
H        H      0.575800000000     0.351300000000     0.833333333333     0.111      
H        H      0.998600000000     0.333450000000     0.833333333333     0.111      
H        H      0.648700000000     0.075800000000     0.833333333333     0.111      
H        H      0.666550000000     0.498600000000     0.833333333333     0.111      
H        H      0.851300000000     0.424200000000     0.833333333333     0.111      
H        H      0.833450000000     0.001400000000     0.833333333333     0.111      
H        H      0.705800000000     0.631350000000     0.068000000000     0.111      
H        H      0.643800000000     0.589100000000     0.068000000000     0.111      
H        H      0.794200000000     0.868650000000     0.068000000000     0.111      
H        H      0.856200000000     0.910900000000     0.068000000000     0.111      
H        H      0.868650000000     0.705800000000     0.068000000000     0.111      
H        H      0.910900000000     0.643800000000     0.068000000000     0.111      
H        H      0.631350000000     0.794200000000     0.068000000000     0.111      
H        H      0.589100000000     0.856200000000     0.068000000000     0.111      
H        H      0.794200000000     0.631350000000     0.098666666667     0.111      
H        H      0.856200000000     0.589100000000     0.098666666667     0.111      
H        H      0.705800000000     0.868650000000     0.098666666667     0.111      
H        H      0.643800000000     0.910900000000     0.098666666667     0.111      
H        H      0.631350000000     0.705800000000     0.098666666667     0.111      
H        H      0.589100000000     0.643800000000     0.098666666667     0.111      
H        H      0.868650000000     0.794200000000     0.098666666667     0.111      
H        H      0.910900000000     0.856200000000     0.098666666667     0.111      
H        H      0.794200000000     0.868650000000     0.265333333333     0.111      
H        H      0.856200000000     0.910900000000     0.265333333333     0.111      
H        H      0.705800000000     0.631350000000     0.265333333333     0.111      
H        H      0.643800000000     0.589100000000     0.265333333333     0.111      
H        H      0.631350000000     0.794200000000     0.265333333333     0.111      
H        H      0.589100000000     0.856200000000     0.265333333333     0.111      
H        H      0.868650000000     0.705800000000     0.265333333333     0.111      
H        H      0.910900000000     0.643800000000     0.265333333333     0.111      
H        H      0.705800000000     0.868650000000     0.234666666667     0.111      
H        H      0.643800000000     0.910900000000     0.234666666667     0.111      
H        H      0.794200000000     0.631350000000     0.234666666667     0.111      
H        H      0.856200000000     0.589100000000     0.234666666667     0.111      
H        H      0.868650000000     0.794200000000     0.234666666667     0.111      
H        H      0.910900000000     0.856200000000     0.234666666667     0.111      
H        H      0.631350000000     0.705800000000     0.234666666667     0.111      
H        H      0.589100000000     0.643800000000     0.234666666667     0.111      
H        H      0.575800000000     0.648700000000     0.000000000000     0.111      
H        H      0.998600000000     0.666550000000     0.000000000000     0.111      
H        H      0.924200000000     0.851300000000     0.000000000000     0.111      
H        H      0.501400000000     0.833450000000     0.000000000000     0.111      
H        H      0.851300000000     0.575800000000     0.000000000000     0.111      
H        H      0.833450000000     0.998600000000     0.000000000000     0.111      
H        H      0.648700000000     0.924200000000     0.000000000000     0.111      
H        H      0.666550000000     0.501400000000     0.000000000000     0.111      
H        H      0.924200000000     0.648700000000     0.166666666667     0.111      
H        H      0.501400000000     0.666550000000     0.166666666667     0.111      
H        H      0.575800000000     0.851300000000     0.166666666667     0.111      
H        H      0.998600000000     0.833450000000     0.166666666667     0.111      
H        H      0.648700000000     0.575800000000     0.166666666667     0.111      
H        H      0.666550000000     0.998600000000     0.166666666667     0.111      
H        H      0.851300000000     0.924200000000     0.166666666667     0.111      
H        H      0.833450000000     0.501400000000     0.166666666667     0.111      
H        H      0.705800000000     0.631350000000     0.401333333333     0.111      
H        H      0.643800000000     0.589100000000     0.401333333333     0.111      
H        H      0.794200000000     0.868650000000     0.401333333333     0.111      
H        H      0.856200000000     0.910900000000     0.401333333333     0.111      
H        H      0.868650000000     0.705800000000     0.401333333333     0.111      
H        H      0.910900000000     0.643800000000     0.401333333333     0.111      
H        H      0.631350000000     0.794200000000     0.401333333333     0.111      
H        H      0.589100000000     0.856200000000     0.401333333333     0.111      
H        H      0.794200000000     0.631350000000     0.432000000000     0.111      
H        H      0.856200000000     0.589100000000     0.432000000000     0.111      
H        H      0.705800000000     0.868650000000     0.432000000000     0.111      
H        H      0.643800000000     0.910900000000     0.432000000000     0.111      
H        H      0.631350000000     0.705800000000     0.432000000000     0.111      
H        H      0.589100000000     0.643800000000     0.432000000000     0.111      
H        H      0.868650000000     0.794200000000     0.432000000000     0.111      
H        H      0.910900000000     0.856200000000     0.432000000000     0.111      
H        H      0.794200000000     0.868650000000     0.598666666667     0.111      
H        H      0.856200000000     0.910900000000     0.598666666667     0.111      
H        H      0.705800000000     0.631350000000     0.598666666667     0.111      
H        H      0.643800000000     0.589100000000     0.598666666667     0.111      
H        H      0.631350000000     0.794200000000     0.598666666667     0.111      
H        H      0.589100000000     0.856200000000     0.598666666667     0.111      
H        H      0.868650000000     0.705800000000     0.598666666667     0.111      
H        H      0.910900000000     0.643800000000     0.598666666667     0.111      
H        H      0.705800000000     0.868650000000     0.568000000000     0.111      
H        H      0.643800000000     0.910900000000     0.568000000000     0.111      
H        H      0.794200000000     0.631350000000     0.568000000000     0.111      
H        H      0.856200000000     0.589100000000     0.568000000000     0.111      
H        H      0.868650000000     0.794200000000     0.568000000000     0.111      
H        H      0.910900000000     0.856200000000     0.568000000000     0.111      
H        H      0.631350000000     0.705800000000     0.568000000000     0.111      
H        H      0.589100000000     0.643800000000     0.568000000000     0.111      
H        H      0.575800000000     0.648700000000     0.333333333333     0.111      
H        H      0.998600000000     0.666550000000     0.333333333333     0.111      
H        H      0.924200000000     0.851300000000     0.333333333333     0.111      
H        H      0.501400000000     0.833450000000     0.333333333333     0.111      
H        H      0.851300000000     0.575800000000     0.333333333333     0.111      
H        H      0.833450000000     0.998600000000     0.333333333333     0.111      
H        H      0.648700000000     0.924200000000     0.333333333333     0.111      
H        H      0.666550000000     0.501400000000     0.333333333333     0.111      
H        H      0.924200000000     0.648700000000     0.500000000000     0.111      
H        H      0.501400000000     0.666550000000     0.500000000000     0.111      
H        H      0.575800000000     0.851300000000     0.500000000000     0.111      
H        H      0.998600000000     0.833450000000     0.500000000000     0.111      
H        H      0.648700000000     0.575800000000     0.500000000000     0.111      
H        H      0.666550000000     0.998600000000     0.500000000000     0.111      
H        H      0.851300000000     0.924200000000     0.500000000000     0.111      
H        H      0.833450000000     0.501400000000     0.500000000000     0.111      
H        H      0.705800000000     0.631350000000     0.734666666667     0.111      
H        H      0.643800000000     0.589100000000     0.734666666667     0.111      
H        H      0.794200000000     0.868650000000     0.734666666667     0.111      
H        H      0.856200000000     0.910900000000     0.734666666667     0.111      
H        H      0.868650000000     0.705800000000     0.734666666667     0.111      
H        H      0.910900000000     0.643800000000     0.734666666667     0.111      
H        H      0.631350000000     0.794200000000     0.734666666667     0.111      
H        H      0.589100000000     0.856200000000     0.734666666667     0.111      
H        H      0.794200000000     0.631350000000     0.765333333333     0.111      
H        H      0.856200000000     0.589100000000     0.765333333333     0.111      
H        H      0.705800000000     0.868650000000     0.765333333333     0.111      
H        H      0.643800000000     0.910900000000     0.765333333333     0.111      
H        H      0.631350000000     0.705800000000     0.765333333333     0.111      
H        H      0.589100000000     0.643800000000     0.765333333333     0.111      
H        H      0.868650000000     0.794200000000     0.765333333333     0.111      
H        H      0.910900000000     0.856200000000     0.765333333333     0.111      
H        H      0.794200000000     0.868650000000     0.932000000000     0.111      
H        H      0.856200000000     0.910900000000     0.932000000000     0.111      
H        H      0.705800000000     0.631350000000     0.932000000000     0.111      
H        H      0.643800000000     0.589100000000     0.932000000000     0.111      
H        H      0.631350000000     0.794200000000     0.932000000000     0.111      
H        H      0.589100000000     0.856200000000     0.932000000000     0.111      
H        H      0.868650000000     0.705800000000     0.932000000000     0.111      
H        H      0.910900000000     0.643800000000     0.932000000000     0.111      
H        H      0.705800000000     0.868650000000     0.901333333333     0.111      
H        H      0.643800000000     0.910900000000     0.901333333333     0.111      
H        H      0.794200000000     0.631350000000     0.901333333333     0.111      
H        H      0.856200000000     0.589100000000     0.901333333333     0.111      
H        H      0.868650000000     0.794200000000     0.901333333333     0.111      
H        H      0.910900000000     0.856200000000     0.901333333333     0.111      
H        H      0.631350000000     0.705800000000     0.901333333333     0.111      
H        H      0.589100000000     0.643800000000     0.901333333333     0.111      
H        H      0.575800000000     0.648700000000     0.666666666667     0.111      
H        H      0.998600000000     0.666550000000     0.666666666667     0.111      
H        H      0.924200000000     0.851300000000     0.666666666667     0.111      
H        H      0.501400000000     0.833450000000     0.666666666667     0.111      
H        H      0.851300000000     0.575800000000     0.666666666667     0.111      
H        H      0.833450000000     0.998600000000     0.666666666667     0.111      
H        H      0.648700000000     0.924200000000     0.666666666667     0.111      
H        H      0.666550000000     0.501400000000     0.666666666667     0.111      
H        H      0.924200000000     0.648700000000     0.833333333333     0.111      
H        H      0.501400000000     0.666550000000     0.833333333333     0.111      
H        H      0.575800000000     0.851300000000     0.833333333333     0.111      
H        H      0.998600000000     0.833450000000     0.833333333333     0.111      
H        H      0.648700000000     0.575800000000     0.833333333333     0.111      
H        H      0.666550000000     0.998600000000     0.833333333333     0.111      
H        H      0.851300000000     0.924200000000     0.833333333333     0.111      
H        H      0.833450000000     0.501400000000     0.833333333333     0.111      
O        O      0.265920000000     0.186800000000     0.040766666667    -0.515      
O        O      0.234080000000     0.313200000000     0.040766666667    -0.515      
O        O      0.313200000000     0.265920000000     0.040766666667    -0.515      
O        O      0.186800000000     0.234080000000     0.040766666667    -0.515      
O        O      0.234080000000     0.186800000000     0.125900000000    -0.515      
O        O      0.265920000000     0.313200000000     0.125900000000    -0.515      
O        O      0.186800000000     0.265920000000     0.125900000000    -0.515      
O        O      0.313200000000     0.234080000000     0.125900000000    -0.515      
O        O      0.234080000000     0.313200000000     0.292566666667    -0.515      
O        O      0.265920000000     0.186800000000     0.292566666667    -0.515      
O        O      0.186800000000     0.234080000000     0.292566666667    -0.515      
O        O      0.313200000000     0.265920000000     0.292566666667    -0.515      
O        O      0.265920000000     0.313200000000     0.207433333333    -0.515      
O        O      0.234080000000     0.186800000000     0.207433333333    -0.515      
O        O      0.313200000000     0.234080000000     0.207433333333    -0.515      
O        O      0.186800000000     0.265920000000     0.207433333333    -0.515      
O        O      0.294770000000     0.126335000000     0.000000000000    -0.515      
O        O      0.205230000000     0.373665000000     0.000000000000    -0.515      
O        O      0.373665000000     0.294770000000     0.000000000000    -0.515      
O        O      0.126335000000     0.205230000000     0.000000000000    -0.515      
O        O      0.205230000000     0.126335000000     0.166666666667    -0.515      
O        O      0.294770000000     0.373665000000     0.166666666667    -0.515      
O        O      0.126335000000     0.294770000000     0.166666666667    -0.515      
O        O      0.373665000000     0.205230000000     0.166666666667    -0.515      
O        O      0.265920000000     0.186800000000     0.374100000000    -0.515      
O        O      0.234080000000     0.313200000000     0.374100000000    -0.515      
O        O      0.313200000000     0.265920000000     0.374100000000    -0.515      
O        O      0.186800000000     0.234080000000     0.374100000000    -0.515      
O        O      0.234080000000     0.186800000000     0.459233333333    -0.515      
O        O      0.265920000000     0.313200000000     0.459233333333    -0.515      
O        O      0.186800000000     0.265920000000     0.459233333333    -0.515      
O        O      0.313200000000     0.234080000000     0.459233333333    -0.515      
O        O      0.234080000000     0.313200000000     0.625900000000    -0.515      
O        O      0.265920000000     0.186800000000     0.625900000000    -0.515      
O        O      0.186800000000     0.234080000000     0.625900000000    -0.515      
O        O      0.313200000000     0.265920000000     0.625900000000    -0.515      
O        O      0.265920000000     0.313200000000     0.540766666667    -0.515      
O        O      0.234080000000     0.186800000000     0.540766666667    -0.515      
O        O      0.313200000000     0.234080000000     0.540766666667    -0.515      
O        O      0.186800000000     0.265920000000     0.540766666667    -0.515      
O        O      0.294770000000     0.126335000000     0.333333333333    -0.515      
O        O      0.205230000000     0.373665000000     0.333333333333    -0.515      
O        O      0.373665000000     0.294770000000     0.333333333333    -0.515      
O        O      0.126335000000     0.205230000000     0.333333333333    -0.515      
O        O      0.205230000000     0.126335000000     0.500000000000    -0.515      
O        O      0.294770000000     0.373665000000     0.500000000000    -0.515      
O        O      0.126335000000     0.294770000000     0.500000000000    -0.515      
O        O      0.373665000000     0.205230000000     0.500000000000    -0.515      
O        O      0.265920000000     0.186800000000     0.707433333333    -0.515      
O        O      0.234080000000     0.313200000000     0.707433333333    -0.515      
O        O      0.313200000000     0.265920000000     0.707433333333    -0.515      
O        O      0.186800000000     0.234080000000     0.707433333333    -0.515      
O        O      0.234080000000     0.186800000000     0.792566666667    -0.515      
O        O      0.265920000000     0.313200000000     0.792566666667    -0.515      
O        O      0.186800000000     0.265920000000     0.792566666667    -0.515      
O        O      0.313200000000     0.234080000000     0.792566666667    -0.515      
O        O      0.234080000000     0.313200000000     0.959233333333    -0.515      
O        O      0.265920000000     0.186800000000     0.959233333333    -0.515      
O        O      0.186800000000     0.234080000000     0.959233333333    -0.515      
O        O      0.313200000000     0.265920000000     0.959233333333    -0.515      
O        O      0.265920000000     0.313200000000     0.874100000000    -0.515      
O        O      0.234080000000     0.186800000000     0.874100000000    -0.515      
O        O      0.313200000000     0.234080000000     0.874100000000    -0.515      
O        O      0.186800000000     0.265920000000     0.874100000000    -0.515      
O        O      0.294770000000     0.126335000000     0.666666666667    -0.515      
O        O      0.205230000000     0.373665000000     0.666666666667    -0.515      
O        O      0.373665000000     0.294770000000     0.666666666667    -0.515      
O        O      0.126335000000     0.205230000000     0.666666666667    -0.515      
O        O      0.205230000000     0.126335000000     0.833333333333    -0.515      
O        O      0.294770000000     0.373665000000     0.833333333333    -0.515      
O        O      0.126335000000     0.294770000000     0.833333333333    -0.515      
O        O      0.373665000000     0.205230000000     0.833333333333    -0.515      
O        O      0.265920000000     0.686800000000     0.040766666667    -0.515      
O        O      0.234080000000     0.813200000000     0.040766666667    -0.515      
O        O      0.313200000000     0.765920000000     0.040766666667    -0.515      
O        O      0.186800000000     0.734080000000     0.040766666667    -0.515      
O        O      0.234080000000     0.686800000000     0.125900000000    -0.515      
O        O      0.265920000000     0.813200000000     0.125900000000    -0.515      
O        O      0.186800000000     0.765920000000     0.125900000000    -0.515      
O        O      0.313200000000     0.734080000000     0.125900000000    -0.515      
O        O      0.234080000000     0.813200000000     0.292566666667    -0.515      
O        O      0.265920000000     0.686800000000     0.292566666667    -0.515      
O        O      0.186800000000     0.734080000000     0.292566666667    -0.515      
O        O      0.313200000000     0.765920000000     0.292566666667    -0.515      
O        O      0.265920000000     0.813200000000     0.207433333333    -0.515      
O        O      0.234080000000     0.686800000000     0.207433333333    -0.515      
O        O      0.313200000000     0.734080000000     0.207433333333    -0.515      
O        O      0.186800000000     0.765920000000     0.207433333333    -0.515      
O        O      0.294770000000     0.626335000000     0.000000000000    -0.515      
O        O      0.205230000000     0.873665000000     0.000000000000    -0.515      
O        O      0.373665000000     0.794770000000     0.000000000000    -0.515      
O        O      0.126335000000     0.705230000000     0.000000000000    -0.515      
O        O      0.205230000000     0.626335000000     0.166666666667    -0.515      
O        O      0.294770000000     0.873665000000     0.166666666667    -0.515      
O        O      0.126335000000     0.794770000000     0.166666666667    -0.515      
O        O      0.373665000000     0.705230000000     0.166666666667    -0.515      
O        O      0.265920000000     0.686800000000     0.374100000000    -0.515      
O        O      0.234080000000     0.813200000000     0.374100000000    -0.515      
O        O      0.313200000000     0.765920000000     0.374100000000    -0.515      
O        O      0.186800000000     0.734080000000     0.374100000000    -0.515      
O        O      0.234080000000     0.686800000000     0.459233333333    -0.515      
O        O      0.265920000000     0.813200000000     0.459233333333    -0.515      
O        O      0.186800000000     0.765920000000     0.459233333333    -0.515      
O        O      0.313200000000     0.734080000000     0.459233333333    -0.515      
O        O      0.234080000000     0.813200000000     0.625900000000    -0.515      
O        O      0.265920000000     0.686800000000     0.625900000000    -0.515      
O        O      0.186800000000     0.734080000000     0.625900000000    -0.515      
O        O      0.313200000000     0.765920000000     0.625900000000    -0.515      
O        O      0.265920000000     0.813200000000     0.540766666667    -0.515      
O        O      0.234080000000     0.686800000000     0.540766666667    -0.515      
O        O      0.313200000000     0.734080000000     0.540766666667    -0.515      
O        O      0.186800000000     0.765920000000     0.540766666667    -0.515      
O        O      0.294770000000     0.626335000000     0.333333333333    -0.515      
O        O      0.205230000000     0.873665000000     0.333333333333    -0.515      
O        O      0.373665000000     0.794770000000     0.333333333333    -0.515      
O        O      0.126335000000     0.705230000000     0.333333333333    -0.515      
O        O      0.205230000000     0.626335000000     0.500000000000    -0.515      
O        O      0.294770000000     0.873665000000     0.500000000000    -0.515      
O        O      0.126335000000     0.794770000000     0.500000000000    -0.515      
O        O      0.373665000000     0.705230000000     0.500000000000    -0.515      
O        O      0.265920000000     0.686800000000     0.707433333333    -0.515      
O        O      0.234080000000     0.813200000000     0.707433333333    -0.515      
O        O      0.313200000000     0.765920000000     0.707433333333    -0.515      
O        O      0.186800000000     0.734080000000     0.707433333333    -0.515      
O        O      0.234080000000     0.686800000000     0.792566666667    -0.515      
O        O      0.265920000000     0.813200000000     0.792566666667    -0.515      
O        O      0.186800000000     0.765920000000     0.792566666667    -0.515      
O        O      0.313200000000     0.734080000000     0.792566666667    -0.515      
O        O      0.234080000000     0.813200000000     0.959233333333    -0.515      
O        O      0.265920000000     0.686800000000     0.959233333333    -0.515      
O        O      0.186800000000     0.734080000000     0.959233333333    -0.515      
O        O      0.313200000000     0.765920000000     0.959233333333    -0.515      
O        O      0.265920000000     0.813200000000     0.874100000000    -0.515      
O        O      0.234080000000     0.686800000000     0.874100000000    -0.515      
O        O      0.313200000000     0.734080000000     0.874100000000    -0.515      
O        O      0.186800000000     0.765920000000     0.874100000000    -0.515      
O        O      0.294770000000     0.626335000000     0.666666666667    -0.515      
O        O      0.205230000000     0.873665000000     0.666666666667    -0.515      
O        O      0.373665000000     0.794770000000     0.666666666667    -0.515      
O        O      0.126335000000     0.705230000000     0.666666666667    -0.515      
O        O      0.205230000000     0.626335000000     0.833333333333    -0.515      
O        O      0.294770000000     0.873665000000     0.833333333333    -0.515      
O        O      0.126335000000     0.794770000000     0.833333333333    -0.515      
O        O      0.373665000000     0.705230000000     0.833333333333    -0.515      
O        O      0.765920000000     0.186800000000     0.040766666667    -0.515      
O        O      0.734080000000     0.313200000000     0.040766666667    -0.515      
O        O      0.813200000000     0.265920000000     0.040766666667    -0.515      
O        O      0.686800000000     0.234080000000     0.040766666667    -0.515      
O        O      0.734080000000     0.186800000000     0.125900000000    -0.515      
O        O      0.765920000000     0.313200000000     0.125900000000    -0.515      
O        O      0.686800000000     0.265920000000     0.125900000000    -0.515      
O        O      0.813200000000     0.234080000000     0.125900000000    -0.515      
O        O      0.734080000000     0.313200000000     0.292566666667    -0.515      
O        O      0.765920000000     0.186800000000     0.292566666667    -0.515      
O        O      0.686800000000     0.234080000000     0.292566666667    -0.515      
O        O      0.813200000000     0.265920000000     0.292566666667    -0.515      
O        O      0.765920000000     0.313200000000     0.207433333333    -0.515      
O        O      0.734080000000     0.186800000000     0.207433333333    -0.515      
O        O      0.813200000000     0.234080000000     0.207433333333    -0.515      
O        O      0.686800000000     0.265920000000     0.207433333333    -0.515      
O        O      0.794770000000     0.126335000000     0.000000000000    -0.515      
O        O      0.705230000000     0.373665000000     0.000000000000    -0.515      
O        O      0.873665000000     0.294770000000     0.000000000000    -0.515      
O        O      0.626335000000     0.205230000000     0.000000000000    -0.515      
O        O      0.705230000000     0.126335000000     0.166666666667    -0.515      
O        O      0.794770000000     0.373665000000     0.166666666667    -0.515      
O        O      0.626335000000     0.294770000000     0.166666666667    -0.515      
O        O      0.873665000000     0.205230000000     0.166666666667    -0.515      
O        O      0.765920000000     0.186800000000     0.374100000000    -0.515      
O        O      0.734080000000     0.313200000000     0.374100000000    -0.515      
O        O      0.813200000000     0.265920000000     0.374100000000    -0.515      
O        O      0.686800000000     0.234080000000     0.374100000000    -0.515      
O        O      0.734080000000     0.186800000000     0.459233333333    -0.515      
O        O      0.765920000000     0.313200000000     0.459233333333    -0.515      
O        O      0.686800000000     0.265920000000     0.459233333333    -0.515      
O        O      0.813200000000     0.234080000000     0.459233333333    -0.515      
O        O      0.734080000000     0.313200000000     0.625900000000    -0.515      
O        O      0.765920000000     0.186800000000     0.625900000000    -0.515      
O        O      0.686800000000     0.234080000000     0.625900000000    -0.515      
O        O      0.813200000000     0.265920000000     0.625900000000    -0.515      
O        O      0.765920000000     0.313200000000     0.540766666667    -0.515      
O        O      0.734080000000     0.186800000000     0.540766666667    -0.515      
O        O      0.813200000000     0.234080000000     0.540766666667    -0.515      
O        O      0.686800000000     0.265920000000     0.540766666667    -0.515      
O        O      0.794770000000     0.126335000000     0.333333333333    -0.515      
O        O      0.705230000000     0.373665000000     0.333333333333    -0.515      
O        O      0.873665000000     0.294770000000     0.333333333333    -0.515      
O        O      0.626335000000     0.205230000000     0.333333333333    -0.515      
O        O      0.705230000000     0.126335000000     0.500000000000    -0.515      
O        O      0.794770000000     0.373665000000     0.500000000000    -0.515      
O        O      0.626335000000     0.294770000000     0.500000000000    -0.515      
O        O      0.873665000000     0.205230000000     0.500000000000    -0.515      
O        O      0.765920000000     0.186800000000     0.707433333333    -0.515      
O        O      0.734080000000     0.313200000000     0.707433333333    -0.515      
O        O      0.813200000000     0.265920000000     0.707433333333    -0.515      
O        O      0.686800000000     0.234080000000     0.707433333333    -0.515      
O        O      0.734080000000     0.186800000000     0.792566666667    -0.515      
O        O      0.765920000000     0.313200000000     0.792566666667    -0.515      
O        O      0.686800000000     0.265920000000     0.792566666667    -0.515      
O        O      0.813200000000     0.234080000000     0.792566666667    -0.515      
O        O      0.734080000000     0.313200000000     0.959233333333    -0.515      
O        O      0.765920000000     0.186800000000     0.959233333333    -0.515      
O        O      0.686800000000     0.234080000000     0.959233333333    -0.515      
O        O      0.813200000000     0.265920000000     0.959233333333    -0.515      
O        O      0.765920000000     0.313200000000     0.874100000000    -0.515      
O        O      0.734080000000     0.186800000000     0.874100000000    -0.515      
O        O      0.813200000000     0.234080000000     0.874100000000    -0.515      
O        O      0.686800000000     0.265920000000     0.874100000000    -0.515      
O        O      0.794770000000     0.126335000000     0.666666666667    -0.515      
O        O      0.705230000000     0.373665000000     0.666666666667    -0.515      
O        O      0.873665000000     0.294770000000     0.666666666667    -0.515      
O        O      0.626335000000     0.205230000000     0.666666666667    -0.515      
O        O      0.705230000000     0.126335000000     0.833333333333    -0.515      
O        O      0.794770000000     0.373665000000     0.833333333333    -0.515      
O        O      0.626335000000     0.294770000000     0.833333333333    -0.515      
O        O      0.873665000000     0.205230000000     0.833333333333    -0.515      
O        O      0.765920000000     0.686800000000     0.040766666667    -0.515      
O        O      0.734080000000     0.813200000000     0.040766666667    -0.515      
O        O      0.813200000000     0.765920000000     0.040766666667    -0.515      
O        O      0.686800000000     0.734080000000     0.040766666667    -0.515      
O        O      0.734080000000     0.686800000000     0.125900000000    -0.515      
O        O      0.765920000000     0.813200000000     0.125900000000    -0.515      
O        O      0.686800000000     0.765920000000     0.125900000000    -0.515      
O        O      0.813200000000     0.734080000000     0.125900000000    -0.515      
O        O      0.734080000000     0.813200000000     0.292566666667    -0.515      
O        O      0.765920000000     0.686800000000     0.292566666667    -0.515      
O        O      0.686800000000     0.734080000000     0.292566666667    -0.515      
O        O      0.813200000000     0.765920000000     0.292566666667    -0.515      
O        O      0.765920000000     0.813200000000     0.207433333333    -0.515      
O        O      0.734080000000     0.686800000000     0.207433333333    -0.515      
O        O      0.813200000000     0.734080000000     0.207433333333    -0.515      
O        O      0.686800000000     0.765920000000     0.207433333333    -0.515      
O        O      0.794770000000     0.626335000000     0.000000000000    -0.515      
O        O      0.705230000000     0.873665000000     0.000000000000    -0.515      
O        O      0.873665000000     0.794770000000     0.000000000000    -0.515      
O        O      0.626335000000     0.705230000000     0.000000000000    -0.515      
O        O      0.705230000000     0.626335000000     0.166666666667    -0.515      
O        O      0.794770000000     0.873665000000     0.166666666667    -0.515      
O        O      0.626335000000     0.794770000000     0.166666666667    -0.515      
O        O      0.873665000000     0.705230000000     0.166666666667    -0.515      
O        O      0.765920000000     0.686800000000     0.374100000000    -0.515      
O        O      0.734080000000     0.813200000000     0.374100000000    -0.515      
O        O      0.813200000000     0.765920000000     0.374100000000    -0.515      
O        O      0.686800000000     0.734080000000     0.374100000000    -0.515      
O        O      0.734080000000     0.686800000000     0.459233333333    -0.515      
O        O      0.765920000000     0.813200000000     0.459233333333    -0.515      
O        O      0.686800000000     0.765920000000     0.459233333333    -0.515      
O        O      0.813200000000     0.734080000000     0.459233333333    -0.515      
O        O      0.734080000000     0.813200000000     0.625900000000    -0.515      
O        O      0.765920000000     0.686800000000     0.625900000000    -0.515      
O        O      0.686800000000     0.734080000000     0.625900000000    -0.515      
O        O      0.813200000000     0.765920000000     0.625900000000    -0.515      
O        O      0.765920000000     0.813200000000     0.540766666667    -0.515      
O        O      0.734080000000     0.686800000000     0.540766666667    -0.515      
O        O      0.813200000000     0.734080000000     0.540766666667    -0.515      
O        O      0.686800000000     0.765920000000     0.540766666667    -0.515      
O        O      0.794770000000     0.626335000000     0.333333333333    -0.515      
O        O      0.705230000000     0.873665000000     0.333333333333    -0.515      
O        O      0.873665000000     0.794770000000     0.333333333333    -0.515      
O        O      0.626335000000     0.705230000000     0.333333333333    -0.515      
O        O      0.705230000000     0.626335000000     0.500000000000    -0.515      
O        O      0.794770000000     0.873665000000     0.500000000000    -0.515      
O        O      0.626335000000     0.794770000000     0.500000000000    -0.515      
O        O      0.873665000000     0.705230000000     0.500000000000    -0.515      
O        O      0.765920000000     0.686800000000     0.707433333333    -0.515      
O        O      0.734080000000     0.813200000000     0.707433333333    -0.515      
O        O      0.813200000000     0.765920000000     0.707433333333    -0.515      
O        O      0.686800000000     0.734080000000     0.707433333333    -0.515      
O        O      0.734080000000     0.686800000000     0.792566666667    -0.515      
O        O      0.765920000000     0.813200000000     0.792566666667    -0.515      
O        O      0.686800000000     0.765920000000     0.792566666667    -0.515      
O        O      0.813200000000     0.734080000000     0.792566666667    -0.515      
O        O      0.734080000000     0.813200000000     0.959233333333    -0.515      
O        O      0.765920000000     0.686800000000     0.959233333333    -0.515      
O        O      0.686800000000     0.734080000000     0.959233333333    -0.515      
O        O      0.813200000000     0.765920000000     0.959233333333    -0.515      
O        O      0.765920000000     0.813200000000     0.874100000000    -0.515      
O        O      0.734080000000     0.686800000000     0.874100000000    -0.515      
O        O      0.813200000000     0.734080000000     0.874100000000    -0.515      
O        O      0.686800000000     0.765920000000     0.874100000000    -0.515      
O        O      0.794770000000     0.626335000000     0.666666666667    -0.515      
O        O      0.705230000000     0.873665000000     0.666666666667    -0.515      
O        O      0.873665000000     0.794770000000     0.666666666667    -0.515      
O        O      0.626335000000     0.705230000000     0.666666666667    -0.515      
O        O      0.705230000000     0.626335000000     0.833333333333    -0.515      
O        O      0.794770000000     0.873665000000     0.833333333333    -0.515      
O        O      0.626335000000     0.794770000000     0.833333333333    -0.515      
O        O      0.873665000000     0.705230000000     0.833333333333    -0.515      
Tb       Tb     0.250000000000     0.250000000000     0.083333333333     0.158      
Tb       Tb     0.250000000000     0.250000000000     0.250000000000     0.158      
Tb       Tb     0.250000000000     0.250000000000     0.416666666667     0.158      
Tb       Tb     0.250000000000     0.250000000000     0.583333333333     0.158      
Tb       Tb     0.250000000000     0.250000000000     0.750000000000     0.158      
Tb       Tb     0.250000000000     0.250000000000     0.916666666667     0.158      
Tb       Tb     0.250000000000     0.750000000000     0.083333333333     0.158      
Tb       Tb     0.250000000000     0.750000000000     0.250000000000     0.158      
Tb       Tb     0.250000000000     0.750000000000     0.416666666667     0.158      
Tb       Tb     0.250000000000     0.750000000000     0.583333333333     0.158      
Tb       Tb     0.250000000000     0.750000000000     0.750000000000     0.158      
Tb       Tb     0.250000000000     0.750000000000     0.916666666667     0.158      
Tb       Tb     0.750000000000     0.250000000000     0.083333333333     0.158      
Tb       Tb     0.750000000000     0.250000000000     0.250000000000     0.158      
Tb       Tb     0.750000000000     0.250000000000     0.416666666667     0.158      
Tb       Tb     0.750000000000     0.250000000000     0.583333333333     0.158      
Tb       Tb     0.750000000000     0.250000000000     0.750000000000     0.158      
Tb       Tb     0.750000000000     0.250000000000     0.916666666667     0.158      
Tb       Tb     0.750000000000     0.750000000000     0.083333333333     0.158      
Tb       Tb     0.750000000000     0.750000000000     0.250000000000     0.158      
Tb       Tb     0.750000000000     0.750000000000     0.416666666667     0.158      
Tb       Tb     0.750000000000     0.750000000000     0.583333333333     0.158      
Tb       Tb     0.750000000000     0.750000000000     0.750000000000     0.158      
Tb       Tb     0.750000000000     0.750000000000     0.916666666667     0.158      
S        S      0.263370000000     0.160480000000     0.000000000000    -0.002      
S        S      0.236630000000     0.339520000000     0.000000000000    -0.002      
S        S      0.339520000000     0.263370000000     0.000000000000    -0.002      
S        S      0.160480000000     0.236630000000     0.000000000000    -0.002      
S        S      0.236630000000     0.160480000000     0.166666666667    -0.002      
S        S      0.263370000000     0.339520000000     0.166666666667    -0.002      
S        S      0.160480000000     0.263370000000     0.166666666667    -0.002      
S        S      0.339520000000     0.236630000000     0.166666666667    -0.002      
S        S      0.263370000000     0.160480000000     0.333333333333    -0.002      
S        S      0.236630000000     0.339520000000     0.333333333333    -0.002      
S        S      0.339520000000     0.263370000000     0.333333333333    -0.002      
S        S      0.160480000000     0.236630000000     0.333333333333    -0.002      
S        S      0.236630000000     0.160480000000     0.500000000000    -0.002      
S        S      0.263370000000     0.339520000000     0.500000000000    -0.002      
S        S      0.160480000000     0.263370000000     0.500000000000    -0.002      
S        S      0.339520000000     0.236630000000     0.500000000000    -0.002      
S        S      0.263370000000     0.160480000000     0.666666666667    -0.002      
S        S      0.236630000000     0.339520000000     0.666666666667    -0.002      
S        S      0.339520000000     0.263370000000     0.666666666667    -0.002      
S        S      0.160480000000     0.236630000000     0.666666666667    -0.002      
S        S      0.236630000000     0.160480000000     0.833333333333    -0.002      
S        S      0.263370000000     0.339520000000     0.833333333333    -0.002      
S        S      0.160480000000     0.263370000000     0.833333333333    -0.002      
S        S      0.339520000000     0.236630000000     0.833333333333    -0.002      
S        S      0.263370000000     0.660480000000     0.000000000000    -0.002      
S        S      0.236630000000     0.839520000000     0.000000000000    -0.002      
S        S      0.339520000000     0.763370000000     0.000000000000    -0.002      
S        S      0.160480000000     0.736630000000     0.000000000000    -0.002      
S        S      0.236630000000     0.660480000000     0.166666666667    -0.002      
S        S      0.263370000000     0.839520000000     0.166666666667    -0.002      
S        S      0.160480000000     0.763370000000     0.166666666667    -0.002      
S        S      0.339520000000     0.736630000000     0.166666666667    -0.002      
S        S      0.263370000000     0.660480000000     0.333333333333    -0.002      
S        S      0.236630000000     0.839520000000     0.333333333333    -0.002      
S        S      0.339520000000     0.763370000000     0.333333333333    -0.002      
S        S      0.160480000000     0.736630000000     0.333333333333    -0.002      
S        S      0.236630000000     0.660480000000     0.500000000000    -0.002      
S        S      0.263370000000     0.839520000000     0.500000000000    -0.002      
S        S      0.160480000000     0.763370000000     0.500000000000    -0.002      
S        S      0.339520000000     0.736630000000     0.500000000000    -0.002      
S        S      0.263370000000     0.660480000000     0.666666666667    -0.002      
S        S      0.236630000000     0.839520000000     0.666666666667    -0.002      
S        S      0.339520000000     0.763370000000     0.666666666667    -0.002      
S        S      0.160480000000     0.736630000000     0.666666666667    -0.002      
S        S      0.236630000000     0.660480000000     0.833333333333    -0.002      
S        S      0.263370000000     0.839520000000     0.833333333333    -0.002      
S        S      0.160480000000     0.763370000000     0.833333333333    -0.002      
S        S      0.339520000000     0.736630000000     0.833333333333    -0.002      
S        S      0.763370000000     0.160480000000     0.000000000000    -0.002      
S        S      0.736630000000     0.339520000000     0.000000000000    -0.002      
S        S      0.839520000000     0.263370000000     0.000000000000    -0.002      
S        S      0.660480000000     0.236630000000     0.000000000000    -0.002      
S        S      0.736630000000     0.160480000000     0.166666666667    -0.002      
S        S      0.763370000000     0.339520000000     0.166666666667    -0.002      
S        S      0.660480000000     0.263370000000     0.166666666667    -0.002      
S        S      0.839520000000     0.236630000000     0.166666666667    -0.002      
S        S      0.763370000000     0.160480000000     0.333333333333    -0.002      
S        S      0.736630000000     0.339520000000     0.333333333333    -0.002      
S        S      0.839520000000     0.263370000000     0.333333333333    -0.002      
S        S      0.660480000000     0.236630000000     0.333333333333    -0.002      
S        S      0.736630000000     0.160480000000     0.500000000000    -0.002      
S        S      0.763370000000     0.339520000000     0.500000000000    -0.002      
S        S      0.660480000000     0.263370000000     0.500000000000    -0.002      
S        S      0.839520000000     0.236630000000     0.500000000000    -0.002      
S        S      0.763370000000     0.160480000000     0.666666666667    -0.002      
S        S      0.736630000000     0.339520000000     0.666666666667    -0.002      
S        S      0.839520000000     0.263370000000     0.666666666667    -0.002      
S        S      0.660480000000     0.236630000000     0.666666666667    -0.002      
S        S      0.736630000000     0.160480000000     0.833333333333    -0.002      
S        S      0.763370000000     0.339520000000     0.833333333333    -0.002      
S        S      0.660480000000     0.263370000000     0.833333333333    -0.002      
S        S      0.839520000000     0.236630000000     0.833333333333    -0.002      
S        S      0.763370000000     0.660480000000     0.000000000000    -0.002      
S        S      0.736630000000     0.839520000000     0.000000000000    -0.002      
S        S      0.839520000000     0.763370000000     0.000000000000    -0.002      
S        S      0.660480000000     0.736630000000     0.000000000000    -0.002      
S        S      0.736630000000     0.660480000000     0.166666666667    -0.002      
S        S      0.763370000000     0.839520000000     0.166666666667    -0.002      
S        S      0.660480000000     0.763370000000     0.166666666667    -0.002      
S        S      0.839520000000     0.736630000000     0.166666666667    -0.002      
S        S      0.763370000000     0.660480000000     0.333333333333    -0.002      
S        S      0.736630000000     0.839520000000     0.333333333333    -0.002      
S        S      0.839520000000     0.763370000000     0.333333333333    -0.002      
S        S      0.660480000000     0.736630000000     0.333333333333    -0.002      
S        S      0.736630000000     0.660480000000     0.500000000000    -0.002      
S        S      0.763370000000     0.839520000000     0.500000000000    -0.002      
S        S      0.660480000000     0.763370000000     0.500000000000    -0.002      
S        S      0.839520000000     0.736630000000     0.500000000000    -0.002      
S        S      0.763370000000     0.660480000000     0.666666666667    -0.002      
S        S      0.736630000000     0.839520000000     0.666666666667    -0.002      
S        S      0.839520000000     0.763370000000     0.666666666667    -0.002      
S        S      0.660480000000     0.736630000000     0.666666666667    -0.002      
S        S      0.736630000000     0.660480000000     0.833333333333    -0.002      
S        S      0.763370000000     0.839520000000     0.833333333333    -0.002      
S        S      0.660480000000     0.763370000000     0.833333333333    -0.002      
S        S      0.839520000000     0.736630000000     0.833333333333    -0.002      
N        N      0.014950000000     0.064850000000     0.000000000000    -0.2        
N        N      0.485050000000     0.435150000000     0.000000000000    -0.2        
N        N      0.435150000000     0.014950000000     0.000000000000    -0.2        
N        N      0.064850000000     0.485050000000     0.000000000000    -0.2        
N        N      0.485050000000     0.064850000000     0.166666666667    -0.2        
N        N      0.014950000000     0.435150000000     0.166666666667    -0.2        
N        N      0.064850000000     0.014950000000     0.166666666667    -0.2        
N        N      0.435150000000     0.485050000000     0.166666666667    -0.2        
N        N      0.014950000000     0.064850000000     0.333333333333    -0.2        
N        N      0.485050000000     0.435150000000     0.333333333333    -0.2        
N        N      0.435150000000     0.014950000000     0.333333333333    -0.2        
N        N      0.064850000000     0.485050000000     0.333333333333    -0.2        
N        N      0.485050000000     0.064850000000     0.500000000000    -0.2        
N        N      0.014950000000     0.435150000000     0.500000000000    -0.2        
N        N      0.064850000000     0.014950000000     0.500000000000    -0.2        
N        N      0.435150000000     0.485050000000     0.500000000000    -0.2        
N        N      0.014950000000     0.064850000000     0.666666666667    -0.2        
N        N      0.485050000000     0.435150000000     0.666666666667    -0.2        
N        N      0.435150000000     0.014950000000     0.666666666667    -0.2        
N        N      0.064850000000     0.485050000000     0.666666666667    -0.2        
N        N      0.485050000000     0.064850000000     0.833333333333    -0.2        
N        N      0.014950000000     0.435150000000     0.833333333333    -0.2        
N        N      0.064850000000     0.014950000000     0.833333333333    -0.2        
N        N      0.435150000000     0.485050000000     0.833333333333    -0.2        
N        N      0.014950000000     0.564850000000     0.000000000000    -0.2        
N        N      0.485050000000     0.935150000000     0.000000000000    -0.2        
N        N      0.435150000000     0.514950000000     0.000000000000    -0.2        
N        N      0.064850000000     0.985050000000     0.000000000000    -0.2        
N        N      0.485050000000     0.564850000000     0.166666666667    -0.2        
N        N      0.014950000000     0.935150000000     0.166666666667    -0.2        
N        N      0.064850000000     0.514950000000     0.166666666667    -0.2        
N        N      0.435150000000     0.985050000000     0.166666666667    -0.2        
N        N      0.014950000000     0.564850000000     0.333333333333    -0.2        
N        N      0.485050000000     0.935150000000     0.333333333333    -0.2        
N        N      0.435150000000     0.514950000000     0.333333333333    -0.2        
N        N      0.064850000000     0.985050000000     0.333333333333    -0.2        
N        N      0.485050000000     0.564850000000     0.500000000000    -0.2        
N        N      0.014950000000     0.935150000000     0.500000000000    -0.2        
N        N      0.064850000000     0.514950000000     0.500000000000    -0.2        
N        N      0.435150000000     0.985050000000     0.500000000000    -0.2        
N        N      0.014950000000     0.564850000000     0.666666666667    -0.2        
N        N      0.485050000000     0.935150000000     0.666666666667    -0.2        
N        N      0.435150000000     0.514950000000     0.666666666667    -0.2        
N        N      0.064850000000     0.985050000000     0.666666666667    -0.2        
N        N      0.485050000000     0.564850000000     0.833333333333    -0.2        
N        N      0.014950000000     0.935150000000     0.833333333333    -0.2        
N        N      0.064850000000     0.514950000000     0.833333333333    -0.2        
N        N      0.435150000000     0.985050000000     0.833333333333    -0.2        
N        N      0.514950000000     0.064850000000     0.000000000000    -0.2        
N        N      0.985050000000     0.435150000000     0.000000000000    -0.2        
N        N      0.935150000000     0.014950000000     0.000000000000    -0.2        
N        N      0.564850000000     0.485050000000     0.000000000000    -0.2        
N        N      0.985050000000     0.064850000000     0.166666666667    -0.2        
N        N      0.514950000000     0.435150000000     0.166666666667    -0.2        
N        N      0.564850000000     0.014950000000     0.166666666667    -0.2        
N        N      0.935150000000     0.485050000000     0.166666666667    -0.2        
N        N      0.514950000000     0.064850000000     0.333333333333    -0.2        
N        N      0.985050000000     0.435150000000     0.333333333333    -0.2        
N        N      0.935150000000     0.014950000000     0.333333333333    -0.2        
N        N      0.564850000000     0.485050000000     0.333333333333    -0.2        
N        N      0.985050000000     0.064850000000     0.500000000000    -0.2        
N        N      0.514950000000     0.435150000000     0.500000000000    -0.2        
N        N      0.564850000000     0.014950000000     0.500000000000    -0.2        
N        N      0.935150000000     0.485050000000     0.500000000000    -0.2        
N        N      0.514950000000     0.064850000000     0.666666666667    -0.2        
N        N      0.985050000000     0.435150000000     0.666666666667    -0.2        
N        N      0.935150000000     0.014950000000     0.666666666667    -0.2        
N        N      0.564850000000     0.485050000000     0.666666666667    -0.2        
N        N      0.985050000000     0.064850000000     0.833333333333    -0.2        
N        N      0.514950000000     0.435150000000     0.833333333333    -0.2        
N        N      0.564850000000     0.014950000000     0.833333333333    -0.2        
N        N      0.935150000000     0.485050000000     0.833333333333    -0.2        
N        N      0.514950000000     0.564850000000     0.000000000000    -0.2        
N        N      0.985050000000     0.935150000000     0.000000000000    -0.2        
N        N      0.935150000000     0.514950000000     0.000000000000    -0.2        
N        N      0.564850000000     0.985050000000     0.000000000000    -0.2        
N        N      0.985050000000     0.564850000000     0.166666666667    -0.2        
N        N      0.514950000000     0.935150000000     0.166666666667    -0.2        
N        N      0.564850000000     0.514950000000     0.166666666667    -0.2        
N        N      0.935150000000     0.985050000000     0.166666666667    -0.2        
N        N      0.514950000000     0.564850000000     0.333333333333    -0.2        
N        N      0.985050000000     0.935150000000     0.333333333333    -0.2        
N        N      0.935150000000     0.514950000000     0.333333333333    -0.2        
N        N      0.564850000000     0.985050000000     0.333333333333    -0.2        
N        N      0.985050000000     0.564850000000     0.500000000000    -0.2        
N        N      0.514950000000     0.935150000000     0.500000000000    -0.2        
N        N      0.564850000000     0.514950000000     0.500000000000    -0.2        
N        N      0.935150000000     0.985050000000     0.500000000000    -0.2        
N        N      0.514950000000     0.564850000000     0.666666666667    -0.2        
N        N      0.985050000000     0.935150000000     0.666666666667    -0.2        
N        N      0.935150000000     0.514950000000     0.666666666667    -0.2        
N        N      0.564850000000     0.985050000000     0.666666666667    -0.2        
N        N      0.985050000000     0.564850000000     0.833333333333    -0.2        
N        N      0.514950000000     0.935150000000     0.833333333333    -0.2        
N        N      0.564850000000     0.514950000000     0.833333333333    -0.2        
N        N      0.935150000000     0.985050000000     0.833333333333    -0.2        


