data_XUBJAF01_clean

_audit_creation_method RASPA-1.0
_audit_creation_date 2022-6-23
_audit_author_name 'Xiaoqi Zhang'

_cell_length_a    42.034
_cell_length_b    31.5255
_cell_length_c    32.6316
_cell_angle_alpha 101.173
_cell_angle_beta  117.53
_cell_angle_gamma 108.723
_cell_volume      33165.9

_symmetry_cell_setting          triclinic
_symmetry_space_group_name_Hall 'P 1'
_symmetry_space_group_name_H-M  'P 1'
_symmetry_Int_Tables_number     1

_symmetry_equiv_pos_as_xyz 'x,y,z'

loop_
_atom_site_label
_atom_site_type_symbol
_atom_site_fract_x
_atom_site_fract_y
_atom_site_fract_z
_atom_site_charge
Eu       Eu     0.063765000000     0.022783333333     0.206796666667     1.858      
Eu       Eu     0.236990000000     0.211556666667     0.293203333333     1.822      
Eu       Eu     0.186235000000     0.310550000000     0.126536666667     1.859      
Eu       Eu     0.013010000000     0.121776666667     0.040130000000     1.823      
H        H      0.090575000000     0.249433333333     0.284000000000     0.255      
H        H      0.074500000000     0.240700000000     0.227833333333     0.257      
H        H      0.223150000000     0.183566666667     0.094366666667     0.244      
H        H      0.099075000000     0.170100000000     0.216000000000     0.255      
H        H      0.134650000000     0.204833333333     0.272166666667     0.256      
H        H      0.191900000000     0.203166666667     0.072300000000     0.242      
H        H      0.159425000000     0.083900000000     0.049333333333     0.255      
H        H      0.175500000000     0.092633333333     0.105500000000     0.257      
H        H      0.026850000000     0.149766666667     0.238966666667     0.244      
H        H      0.150925000000     0.163233333333     0.117333333333     0.255      
H        H      0.115350000000     0.128500000000     0.061166666667     0.256      
H        H      0.058100000000     0.130166666667     0.261033333333     0.242      
C        C      0.119975000000     0.309366666667     0.277000000000     0.606      
C        C      0.082700000000     0.263800000000     0.259600000000    -0.824      
C        C      0.046125000000     0.267833333333     0.252066666667     0.698      
C        C      0.000200000000     0.258633333333     0.124966666667     0.59       
C        C      0.149275000000     0.216300000000     0.223000000000     0.603      
C        C      0.128150000000     0.184000000000     0.240400000000    -0.824      
C        C      0.136825000000     0.142766666667     0.247933333333     0.7        
C        C      0.225250000000     0.208633333333     0.041700000000     0.592      
C        C      0.130025000000     0.023966666667     0.056333333333     0.606      
C        C      0.167300000000     0.069533333333     0.073733333333    -0.824      
C        C      0.203875000000     0.065500000000     0.081266666667     0.698      
C        C      0.249800000000     0.074700000000     0.208366666667     0.59       
C        C      0.100725000000     0.117033333333     0.110333333333     0.603      
C        C      0.121850000000     0.149333333333     0.092933333333    -0.824      
C        C      0.113175000000     0.190566666667     0.085400000000     0.7        
C        C      0.024750000000     0.124700000000     0.291633333333     0.592      
C        C      0.218900000000     0.208533333333     0.083333333333    -0.784      
C        C      0.031100000000     0.124800000000     0.250000000000    -0.784      
O        O      0.116325000000     0.007066666667     0.258233333333    -0.557      
O        O      0.037175000000     0.297966666667     0.235733333333    -0.553      
O        O      0.024650000000     0.238800000000     0.261200000000    -0.62       
O        O      0.154000000000     0.314733333333     0.309266666667    -0.393      
O        O      0.037075000000     0.269866666667     0.147233333333    -0.517      
O        O      0.239375000000     0.289666666667     0.135966666667    -0.64       
O        O      0.186625000000     0.230200000000     0.241766666667    -0.554      
O        O      0.171675000000     0.147166666667     0.264266666667    -0.559      
O        O      0.108200000000     0.105000000000     0.238800000000    -0.632      
O        O      0.129100000000     0.229400000000     0.190733333333    -0.389      
O        O      0.216975000000     0.235533333333     0.019433333333    -0.507      
O        O      0.240275000000     0.183200000000     0.030700000000    -0.626      
O        O      0.133675000000     0.326266666667     0.075100000000    -0.557      
O        O      0.212825000000     0.035366666667     0.097600000000    -0.553      
O        O      0.225350000000     0.094533333333     0.072133333333    -0.62       
O        O      0.096000000000     0.018600000000     0.024066666667    -0.393      
O        O      0.212925000000     0.063466666667     0.186100000000    -0.517      
O        O      0.010625000000     0.043666666667     0.197366666667    -0.64       
O        O      0.063375000000     0.103133333333     0.091566666667    -0.554      
O        O      0.078325000000     0.186166666667     0.069066666667    -0.559      
O        O      0.141800000000     0.228333333333     0.094533333333    -0.632      
O        O      0.120900000000     0.103933333333     0.142600000000    -0.389      
O        O      0.033025000000     0.097800000000     0.313900000000    -0.507      
O        O      0.009725000000     0.150133333333     0.302633333333    -0.626      
Eu       Eu     0.063765000000     0.022783333333     0.540130000000     1.858      
Eu       Eu     0.236990000000     0.211556666667     0.626536666667     1.822      
Eu       Eu     0.186235000000     0.310550000000     0.459870000000     1.859      
Eu       Eu     0.013010000000     0.121776666667     0.373463333333     1.823      
H        H      0.090575000000     0.249433333333     0.617333333333     0.255      
H        H      0.074500000000     0.240700000000     0.561166666667     0.257      
H        H      0.223150000000     0.183566666667     0.427700000000     0.244      
H        H      0.099075000000     0.170100000000     0.549333333333     0.255      
H        H      0.134650000000     0.204833333333     0.605500000000     0.256      
H        H      0.191900000000     0.203166666667     0.405633333333     0.242      
H        H      0.159425000000     0.083900000000     0.382666666667     0.255      
H        H      0.175500000000     0.092633333333     0.438833333333     0.257      
H        H      0.026850000000     0.149766666667     0.572300000000     0.244      
H        H      0.150925000000     0.163233333333     0.450666666667     0.255      
H        H      0.115350000000     0.128500000000     0.394500000000     0.256      
H        H      0.058100000000     0.130166666667     0.594366666667     0.242      
C        C      0.119975000000     0.309366666667     0.610333333333     0.606      
C        C      0.082700000000     0.263800000000     0.592933333333    -0.824      
C        C      0.046125000000     0.267833333333     0.585400000000     0.698      
C        C      0.000200000000     0.258633333333     0.458300000000     0.59       
C        C      0.149275000000     0.216300000000     0.556333333333     0.603      
C        C      0.128150000000     0.184000000000     0.573733333333    -0.824      
C        C      0.136825000000     0.142766666667     0.581266666667     0.7        
C        C      0.225250000000     0.208633333333     0.375033333333     0.592      
C        C      0.130025000000     0.023966666667     0.389666666667     0.606      
C        C      0.167300000000     0.069533333333     0.407066666667    -0.824      
C        C      0.203875000000     0.065500000000     0.414600000000     0.698      
C        C      0.249800000000     0.074700000000     0.541700000000     0.59       
C        C      0.100725000000     0.117033333333     0.443666666667     0.603      
C        C      0.121850000000     0.149333333333     0.426266666667    -0.824      
C        C      0.113175000000     0.190566666667     0.418733333333     0.7        
C        C      0.024750000000     0.124700000000     0.624966666667     0.592      
C        C      0.218900000000     0.208533333333     0.416666666667    -0.784      
C        C      0.031100000000     0.124800000000     0.583333333333    -0.784      
O        O      0.116325000000     0.007066666667     0.591566666667    -0.557      
O        O      0.037175000000     0.297966666667     0.569066666667    -0.553      
O        O      0.024650000000     0.238800000000     0.594533333333    -0.62       
O        O      0.154000000000     0.314733333333     0.642600000000    -0.393      
O        O      0.037075000000     0.269866666667     0.480566666667    -0.517      
O        O      0.239375000000     0.289666666667     0.469300000000    -0.64       
O        O      0.186625000000     0.230200000000     0.575100000000    -0.554      
O        O      0.171675000000     0.147166666667     0.597600000000    -0.559      
O        O      0.108200000000     0.105000000000     0.572133333333    -0.632      
O        O      0.129100000000     0.229400000000     0.524066666667    -0.389      
O        O      0.216975000000     0.235533333333     0.352766666667    -0.507      
O        O      0.240275000000     0.183200000000     0.364033333333    -0.626      
O        O      0.133675000000     0.326266666667     0.408433333333    -0.557      
O        O      0.212825000000     0.035366666667     0.430933333333    -0.553      
O        O      0.225350000000     0.094533333333     0.405466666667    -0.62       
O        O      0.096000000000     0.018600000000     0.357400000000    -0.393      
O        O      0.212925000000     0.063466666667     0.519433333333    -0.517      
O        O      0.010625000000     0.043666666667     0.530700000000    -0.64       
O        O      0.063375000000     0.103133333333     0.424900000000    -0.554      
O        O      0.078325000000     0.186166666667     0.402400000000    -0.559      
O        O      0.141800000000     0.228333333333     0.427866666667    -0.632      
O        O      0.120900000000     0.103933333333     0.475933333333    -0.389      
O        O      0.033025000000     0.097800000000     0.647233333333    -0.507      
O        O      0.009725000000     0.150133333333     0.635966666667    -0.626      
Eu       Eu     0.063765000000     0.022783333333     0.873463333333     1.858      
Eu       Eu     0.236990000000     0.211556666667     0.959870000000     1.822      
Eu       Eu     0.186235000000     0.310550000000     0.793203333333     1.859      
Eu       Eu     0.013010000000     0.121776666667     0.706796666667     1.823      
H        H      0.090575000000     0.249433333333     0.950666666667     0.255      
H        H      0.074500000000     0.240700000000     0.894500000000     0.257      
H        H      0.223150000000     0.183566666667     0.761033333333     0.244      
H        H      0.099075000000     0.170100000000     0.882666666667     0.255      
H        H      0.134650000000     0.204833333333     0.938833333333     0.256      
H        H      0.191900000000     0.203166666667     0.738966666667     0.242      
H        H      0.159425000000     0.083900000000     0.716000000000     0.255      
H        H      0.175500000000     0.092633333333     0.772166666667     0.257      
H        H      0.026850000000     0.149766666667     0.905633333333     0.244      
H        H      0.150925000000     0.163233333333     0.784000000000     0.255      
H        H      0.115350000000     0.128500000000     0.727833333333     0.256      
H        H      0.058100000000     0.130166666667     0.927700000000     0.242      
C        C      0.119975000000     0.309366666667     0.943666666667     0.606      
C        C      0.082700000000     0.263800000000     0.926266666667    -0.824      
C        C      0.046125000000     0.267833333333     0.918733333333     0.698      
C        C      0.000200000000     0.258633333333     0.791633333333     0.59       
C        C      0.149275000000     0.216300000000     0.889666666667     0.603      
C        C      0.128150000000     0.184000000000     0.907066666667    -0.824      
C        C      0.136825000000     0.142766666667     0.914600000000     0.7        
C        C      0.225250000000     0.208633333333     0.708366666667     0.592      
C        C      0.130025000000     0.023966666667     0.723000000000     0.606      
C        C      0.167300000000     0.069533333333     0.740400000000    -0.824      
C        C      0.203875000000     0.065500000000     0.747933333333     0.698      
C        C      0.249800000000     0.074700000000     0.875033333333     0.59       
C        C      0.100725000000     0.117033333333     0.777000000000     0.603      
C        C      0.121850000000     0.149333333333     0.759600000000    -0.824      
C        C      0.113175000000     0.190566666667     0.752066666667     0.7        
C        C      0.024750000000     0.124700000000     0.958300000000     0.592      
C        C      0.218900000000     0.208533333333     0.750000000000    -0.784      
C        C      0.031100000000     0.124800000000     0.916666666667    -0.784      
O        O      0.116325000000     0.007066666667     0.924900000000    -0.557      
O        O      0.037175000000     0.297966666667     0.902400000000    -0.553      
O        O      0.024650000000     0.238800000000     0.927866666667    -0.62       
O        O      0.154000000000     0.314733333333     0.975933333333    -0.393      
O        O      0.037075000000     0.269866666667     0.813900000000    -0.517      
O        O      0.239375000000     0.289666666667     0.802633333333    -0.64       
O        O      0.186625000000     0.230200000000     0.908433333333    -0.554      
O        O      0.171675000000     0.147166666667     0.930933333333    -0.559      
O        O      0.108200000000     0.105000000000     0.905466666667    -0.632      
O        O      0.129100000000     0.229400000000     0.857400000000    -0.389      
O        O      0.216975000000     0.235533333333     0.686100000000    -0.507      
O        O      0.240275000000     0.183200000000     0.697366666667    -0.626      
O        O      0.133675000000     0.326266666667     0.741766666667    -0.557      
O        O      0.212825000000     0.035366666667     0.764266666667    -0.553      
O        O      0.225350000000     0.094533333333     0.738800000000    -0.62       
O        O      0.096000000000     0.018600000000     0.690733333333    -0.393      
O        O      0.212925000000     0.063466666667     0.852766666667    -0.517      
O        O      0.010625000000     0.043666666667     0.864033333333    -0.64       
O        O      0.063375000000     0.103133333333     0.758233333333    -0.554      
O        O      0.078325000000     0.186166666667     0.735733333333    -0.559      
O        O      0.141800000000     0.228333333333     0.761200000000    -0.632      
O        O      0.120900000000     0.103933333333     0.809266666667    -0.389      
O        O      0.033025000000     0.097800000000     0.980566666667    -0.507      
O        O      0.009725000000     0.150133333333     0.969300000000    -0.626      
Eu       Eu     0.063765000000     0.356116666667     0.206796666667     1.858      
Eu       Eu     0.236990000000     0.544890000000     0.293203333333     1.822      
Eu       Eu     0.186235000000     0.643883333333     0.126536666667     1.859      
Eu       Eu     0.013010000000     0.455110000000     0.040130000000     1.823      
H        H      0.090575000000     0.582766666667     0.284000000000     0.255      
H        H      0.074500000000     0.574033333333     0.227833333333     0.257      
H        H      0.223150000000     0.516900000000     0.094366666667     0.244      
H        H      0.099075000000     0.503433333333     0.216000000000     0.255      
H        H      0.134650000000     0.538166666667     0.272166666667     0.256      
H        H      0.191900000000     0.536500000000     0.072300000000     0.242      
H        H      0.159425000000     0.417233333333     0.049333333333     0.255      
H        H      0.175500000000     0.425966666667     0.105500000000     0.257      
H        H      0.026850000000     0.483100000000     0.238966666667     0.244      
H        H      0.150925000000     0.496566666667     0.117333333333     0.255      
H        H      0.115350000000     0.461833333333     0.061166666667     0.256      
H        H      0.058100000000     0.463500000000     0.261033333333     0.242      
C        C      0.119975000000     0.642700000000     0.277000000000     0.606      
C        C      0.082700000000     0.597133333333     0.259600000000    -0.824      
C        C      0.046125000000     0.601166666667     0.252066666667     0.698      
C        C      0.000200000000     0.591966666667     0.124966666667     0.59       
C        C      0.149275000000     0.549633333333     0.223000000000     0.603      
C        C      0.128150000000     0.517333333333     0.240400000000    -0.824      
C        C      0.136825000000     0.476100000000     0.247933333333     0.7        
C        C      0.225250000000     0.541966666667     0.041700000000     0.592      
C        C      0.130025000000     0.357300000000     0.056333333333     0.606      
C        C      0.167300000000     0.402866666667     0.073733333333    -0.824      
C        C      0.203875000000     0.398833333333     0.081266666667     0.698      
C        C      0.249800000000     0.408033333333     0.208366666667     0.59       
C        C      0.100725000000     0.450366666667     0.110333333333     0.603      
C        C      0.121850000000     0.482666666667     0.092933333333    -0.824      
C        C      0.113175000000     0.523900000000     0.085400000000     0.7        
C        C      0.024750000000     0.458033333333     0.291633333333     0.592      
C        C      0.218900000000     0.541866666667     0.083333333333    -0.784      
C        C      0.031100000000     0.458133333333     0.250000000000    -0.784      
O        O      0.116325000000     0.340400000000     0.258233333333    -0.557      
O        O      0.037175000000     0.631300000000     0.235733333333    -0.553      
O        O      0.024650000000     0.572133333333     0.261200000000    -0.62       
O        O      0.154000000000     0.648066666667     0.309266666667    -0.393      
O        O      0.037075000000     0.603200000000     0.147233333333    -0.517      
O        O      0.239375000000     0.623000000000     0.135966666667    -0.64       
O        O      0.186625000000     0.563533333333     0.241766666667    -0.554      
O        O      0.171675000000     0.480500000000     0.264266666667    -0.559      
O        O      0.108200000000     0.438333333333     0.238800000000    -0.632      
O        O      0.129100000000     0.562733333333     0.190733333333    -0.389      
O        O      0.216975000000     0.568866666667     0.019433333333    -0.507      
O        O      0.240275000000     0.516533333333     0.030700000000    -0.626      
O        O      0.133675000000     0.659600000000     0.075100000000    -0.557      
O        O      0.212825000000     0.368700000000     0.097600000000    -0.553      
O        O      0.225350000000     0.427866666667     0.072133333333    -0.62       
O        O      0.096000000000     0.351933333333     0.024066666667    -0.393      
O        O      0.212925000000     0.396800000000     0.186100000000    -0.517      
O        O      0.010625000000     0.377000000000     0.197366666667    -0.64       
O        O      0.063375000000     0.436466666667     0.091566666667    -0.554      
O        O      0.078325000000     0.519500000000     0.069066666667    -0.559      
O        O      0.141800000000     0.561666666667     0.094533333333    -0.632      
O        O      0.120900000000     0.437266666667     0.142600000000    -0.389      
O        O      0.033025000000     0.431133333333     0.313900000000    -0.507      
O        O      0.009725000000     0.483466666667     0.302633333333    -0.626      
Eu       Eu     0.063765000000     0.356116666667     0.540130000000     1.858      
Eu       Eu     0.236990000000     0.544890000000     0.626536666667     1.822      
Eu       Eu     0.186235000000     0.643883333333     0.459870000000     1.859      
Eu       Eu     0.013010000000     0.455110000000     0.373463333333     1.823      
H        H      0.090575000000     0.582766666667     0.617333333333     0.255      
H        H      0.074500000000     0.574033333333     0.561166666667     0.257      
H        H      0.223150000000     0.516900000000     0.427700000000     0.244      
H        H      0.099075000000     0.503433333333     0.549333333333     0.255      
H        H      0.134650000000     0.538166666667     0.605500000000     0.256      
H        H      0.191900000000     0.536500000000     0.405633333333     0.242      
H        H      0.159425000000     0.417233333333     0.382666666667     0.255      
H        H      0.175500000000     0.425966666667     0.438833333333     0.257      
H        H      0.026850000000     0.483100000000     0.572300000000     0.244      
H        H      0.150925000000     0.496566666667     0.450666666667     0.255      
H        H      0.115350000000     0.461833333333     0.394500000000     0.256      
H        H      0.058100000000     0.463500000000     0.594366666667     0.242      
C        C      0.119975000000     0.642700000000     0.610333333333     0.606      
C        C      0.082700000000     0.597133333333     0.592933333333    -0.824      
C        C      0.046125000000     0.601166666667     0.585400000000     0.698      
C        C      0.000200000000     0.591966666667     0.458300000000     0.59       
C        C      0.149275000000     0.549633333333     0.556333333333     0.603      
C        C      0.128150000000     0.517333333333     0.573733333333    -0.824      
C        C      0.136825000000     0.476100000000     0.581266666667     0.7        
C        C      0.225250000000     0.541966666667     0.375033333333     0.592      
C        C      0.130025000000     0.357300000000     0.389666666667     0.606      
C        C      0.167300000000     0.402866666667     0.407066666667    -0.824      
C        C      0.203875000000     0.398833333333     0.414600000000     0.698      
C        C      0.249800000000     0.408033333333     0.541700000000     0.59       
C        C      0.100725000000     0.450366666667     0.443666666667     0.603      
C        C      0.121850000000     0.482666666667     0.426266666667    -0.824      
C        C      0.113175000000     0.523900000000     0.418733333333     0.7        
C        C      0.024750000000     0.458033333333     0.624966666667     0.592      
C        C      0.218900000000     0.541866666667     0.416666666667    -0.784      
C        C      0.031100000000     0.458133333333     0.583333333333    -0.784      
O        O      0.116325000000     0.340400000000     0.591566666667    -0.557      
O        O      0.037175000000     0.631300000000     0.569066666667    -0.553      
O        O      0.024650000000     0.572133333333     0.594533333333    -0.62       
O        O      0.154000000000     0.648066666667     0.642600000000    -0.393      
O        O      0.037075000000     0.603200000000     0.480566666667    -0.517      
O        O      0.239375000000     0.623000000000     0.469300000000    -0.64       
O        O      0.186625000000     0.563533333333     0.575100000000    -0.554      
O        O      0.171675000000     0.480500000000     0.597600000000    -0.559      
O        O      0.108200000000     0.438333333333     0.572133333333    -0.632      
O        O      0.129100000000     0.562733333333     0.524066666667    -0.389      
O        O      0.216975000000     0.568866666667     0.352766666667    -0.507      
O        O      0.240275000000     0.516533333333     0.364033333333    -0.626      
O        O      0.133675000000     0.659600000000     0.408433333333    -0.557      
O        O      0.212825000000     0.368700000000     0.430933333333    -0.553      
O        O      0.225350000000     0.427866666667     0.405466666667    -0.62       
O        O      0.096000000000     0.351933333333     0.357400000000    -0.393      
O        O      0.212925000000     0.396800000000     0.519433333333    -0.517      
O        O      0.010625000000     0.377000000000     0.530700000000    -0.64       
O        O      0.063375000000     0.436466666667     0.424900000000    -0.554      
O        O      0.078325000000     0.519500000000     0.402400000000    -0.559      
O        O      0.141800000000     0.561666666667     0.427866666667    -0.632      
O        O      0.120900000000     0.437266666667     0.475933333333    -0.389      
O        O      0.033025000000     0.431133333333     0.647233333333    -0.507      
O        O      0.009725000000     0.483466666667     0.635966666667    -0.626      
Eu       Eu     0.063765000000     0.356116666667     0.873463333333     1.858      
Eu       Eu     0.236990000000     0.544890000000     0.959870000000     1.822      
Eu       Eu     0.186235000000     0.643883333333     0.793203333333     1.859      
Eu       Eu     0.013010000000     0.455110000000     0.706796666667     1.823      
H        H      0.090575000000     0.582766666667     0.950666666667     0.255      
H        H      0.074500000000     0.574033333333     0.894500000000     0.257      
H        H      0.223150000000     0.516900000000     0.761033333333     0.244      
H        H      0.099075000000     0.503433333333     0.882666666667     0.255      
H        H      0.134650000000     0.538166666667     0.938833333333     0.256      
H        H      0.191900000000     0.536500000000     0.738966666667     0.242      
H        H      0.159425000000     0.417233333333     0.716000000000     0.255      
H        H      0.175500000000     0.425966666667     0.772166666667     0.257      
H        H      0.026850000000     0.483100000000     0.905633333333     0.244      
H        H      0.150925000000     0.496566666667     0.784000000000     0.255      
H        H      0.115350000000     0.461833333333     0.727833333333     0.256      
H        H      0.058100000000     0.463500000000     0.927700000000     0.242      
C        C      0.119975000000     0.642700000000     0.943666666667     0.606      
C        C      0.082700000000     0.597133333333     0.926266666667    -0.824      
C        C      0.046125000000     0.601166666667     0.918733333333     0.698      
C        C      0.000200000000     0.591966666667     0.791633333333     0.59       
C        C      0.149275000000     0.549633333333     0.889666666667     0.603      
C        C      0.128150000000     0.517333333333     0.907066666667    -0.824      
C        C      0.136825000000     0.476100000000     0.914600000000     0.7        
C        C      0.225250000000     0.541966666667     0.708366666667     0.592      
C        C      0.130025000000     0.357300000000     0.723000000000     0.606      
C        C      0.167300000000     0.402866666667     0.740400000000    -0.824      
C        C      0.203875000000     0.398833333333     0.747933333333     0.698      
C        C      0.249800000000     0.408033333333     0.875033333333     0.59       
C        C      0.100725000000     0.450366666667     0.777000000000     0.603      
C        C      0.121850000000     0.482666666667     0.759600000000    -0.824      
C        C      0.113175000000     0.523900000000     0.752066666667     0.7        
C        C      0.024750000000     0.458033333333     0.958300000000     0.592      
C        C      0.218900000000     0.541866666667     0.750000000000    -0.784      
C        C      0.031100000000     0.458133333333     0.916666666667    -0.784      
O        O      0.116325000000     0.340400000000     0.924900000000    -0.557      
O        O      0.037175000000     0.631300000000     0.902400000000    -0.553      
O        O      0.024650000000     0.572133333333     0.927866666667    -0.62       
O        O      0.154000000000     0.648066666667     0.975933333333    -0.393      
O        O      0.037075000000     0.603200000000     0.813900000000    -0.517      
O        O      0.239375000000     0.623000000000     0.802633333333    -0.64       
O        O      0.186625000000     0.563533333333     0.908433333333    -0.554      
O        O      0.171675000000     0.480500000000     0.930933333333    -0.559      
O        O      0.108200000000     0.438333333333     0.905466666667    -0.632      
O        O      0.129100000000     0.562733333333     0.857400000000    -0.389      
O        O      0.216975000000     0.568866666667     0.686100000000    -0.507      
O        O      0.240275000000     0.516533333333     0.697366666667    -0.626      
O        O      0.133675000000     0.659600000000     0.741766666667    -0.557      
O        O      0.212825000000     0.368700000000     0.764266666667    -0.553      
O        O      0.225350000000     0.427866666667     0.738800000000    -0.62       
O        O      0.096000000000     0.351933333333     0.690733333333    -0.393      
O        O      0.212925000000     0.396800000000     0.852766666667    -0.517      
O        O      0.010625000000     0.377000000000     0.864033333333    -0.64       
O        O      0.063375000000     0.436466666667     0.758233333333    -0.554      
O        O      0.078325000000     0.519500000000     0.735733333333    -0.559      
O        O      0.141800000000     0.561666666667     0.761200000000    -0.632      
O        O      0.120900000000     0.437266666667     0.809266666667    -0.389      
O        O      0.033025000000     0.431133333333     0.980566666667    -0.507      
O        O      0.009725000000     0.483466666667     0.969300000000    -0.626      
Eu       Eu     0.063765000000     0.689450000000     0.206796666667     1.858      
Eu       Eu     0.236990000000     0.878223333333     0.293203333333     1.822      
Eu       Eu     0.186235000000     0.977216666667     0.126536666667     1.859      
Eu       Eu     0.013010000000     0.788443333333     0.040130000000     1.823      
H        H      0.090575000000     0.916100000000     0.284000000000     0.255      
H        H      0.074500000000     0.907366666667     0.227833333333     0.257      
H        H      0.223150000000     0.850233333333     0.094366666667     0.244      
H        H      0.099075000000     0.836766666667     0.216000000000     0.255      
H        H      0.134650000000     0.871500000000     0.272166666667     0.256      
H        H      0.191900000000     0.869833333333     0.072300000000     0.242      
H        H      0.159425000000     0.750566666667     0.049333333333     0.255      
H        H      0.175500000000     0.759300000000     0.105500000000     0.257      
H        H      0.026850000000     0.816433333333     0.238966666667     0.244      
H        H      0.150925000000     0.829900000000     0.117333333333     0.255      
H        H      0.115350000000     0.795166666667     0.061166666667     0.256      
H        H      0.058100000000     0.796833333333     0.261033333333     0.242      
C        C      0.119975000000     0.976033333333     0.277000000000     0.606      
C        C      0.082700000000     0.930466666667     0.259600000000    -0.824      
C        C      0.046125000000     0.934500000000     0.252066666667     0.698      
C        C      0.000200000000     0.925300000000     0.124966666667     0.59       
C        C      0.149275000000     0.882966666667     0.223000000000     0.603      
C        C      0.128150000000     0.850666666667     0.240400000000    -0.824      
C        C      0.136825000000     0.809433333333     0.247933333333     0.7        
C        C      0.225250000000     0.875300000000     0.041700000000     0.592      
C        C      0.130025000000     0.690633333333     0.056333333333     0.606      
C        C      0.167300000000     0.736200000000     0.073733333333    -0.824      
C        C      0.203875000000     0.732166666667     0.081266666667     0.698      
C        C      0.249800000000     0.741366666667     0.208366666667     0.59       
C        C      0.100725000000     0.783700000000     0.110333333333     0.603      
C        C      0.121850000000     0.816000000000     0.092933333333    -0.824      
C        C      0.113175000000     0.857233333333     0.085400000000     0.7        
C        C      0.024750000000     0.791366666667     0.291633333333     0.592      
C        C      0.218900000000     0.875200000000     0.083333333333    -0.784      
C        C      0.031100000000     0.791466666667     0.250000000000    -0.784      
O        O      0.116325000000     0.673733333333     0.258233333333    -0.557      
O        O      0.037175000000     0.964633333333     0.235733333333    -0.553      
O        O      0.024650000000     0.905466666667     0.261200000000    -0.62       
O        O      0.154000000000     0.981400000000     0.309266666667    -0.393      
O        O      0.037075000000     0.936533333333     0.147233333333    -0.517      
O        O      0.239375000000     0.956333333333     0.135966666667    -0.64       
O        O      0.186625000000     0.896866666667     0.241766666667    -0.554      
O        O      0.171675000000     0.813833333333     0.264266666667    -0.559      
O        O      0.108200000000     0.771666666667     0.238800000000    -0.632      
O        O      0.129100000000     0.896066666667     0.190733333333    -0.389      
O        O      0.216975000000     0.902200000000     0.019433333333    -0.507      
O        O      0.240275000000     0.849866666667     0.030700000000    -0.626      
O        O      0.133675000000     0.992933333333     0.075100000000    -0.557      
O        O      0.212825000000     0.702033333333     0.097600000000    -0.553      
O        O      0.225350000000     0.761200000000     0.072133333333    -0.62       
O        O      0.096000000000     0.685266666667     0.024066666667    -0.393      
O        O      0.212925000000     0.730133333333     0.186100000000    -0.517      
O        O      0.010625000000     0.710333333333     0.197366666667    -0.64       
O        O      0.063375000000     0.769800000000     0.091566666667    -0.554      
O        O      0.078325000000     0.852833333333     0.069066666667    -0.559      
O        O      0.141800000000     0.895000000000     0.094533333333    -0.632      
O        O      0.120900000000     0.770600000000     0.142600000000    -0.389      
O        O      0.033025000000     0.764466666667     0.313900000000    -0.507      
O        O      0.009725000000     0.816800000000     0.302633333333    -0.626      
Eu       Eu     0.063765000000     0.689450000000     0.540130000000     1.858      
Eu       Eu     0.236990000000     0.878223333333     0.626536666667     1.822      
Eu       Eu     0.186235000000     0.977216666667     0.459870000000     1.859      
Eu       Eu     0.013010000000     0.788443333333     0.373463333333     1.823      
H        H      0.090575000000     0.916100000000     0.617333333333     0.255      
H        H      0.074500000000     0.907366666667     0.561166666667     0.257      
H        H      0.223150000000     0.850233333333     0.427700000000     0.244      
H        H      0.099075000000     0.836766666667     0.549333333333     0.255      
H        H      0.134650000000     0.871500000000     0.605500000000     0.256      
H        H      0.191900000000     0.869833333333     0.405633333333     0.242      
H        H      0.159425000000     0.750566666667     0.382666666667     0.255      
H        H      0.175500000000     0.759300000000     0.438833333333     0.257      
H        H      0.026850000000     0.816433333333     0.572300000000     0.244      
H        H      0.150925000000     0.829900000000     0.450666666667     0.255      
H        H      0.115350000000     0.795166666667     0.394500000000     0.256      
H        H      0.058100000000     0.796833333333     0.594366666667     0.242      
C        C      0.119975000000     0.976033333333     0.610333333333     0.606      
C        C      0.082700000000     0.930466666667     0.592933333333    -0.824      
C        C      0.046125000000     0.934500000000     0.585400000000     0.698      
C        C      0.000200000000     0.925300000000     0.458300000000     0.59       
C        C      0.149275000000     0.882966666667     0.556333333333     0.603      
C        C      0.128150000000     0.850666666667     0.573733333333    -0.824      
C        C      0.136825000000     0.809433333333     0.581266666667     0.7        
C        C      0.225250000000     0.875300000000     0.375033333333     0.592      
C        C      0.130025000000     0.690633333333     0.389666666667     0.606      
C        C      0.167300000000     0.736200000000     0.407066666667    -0.824      
C        C      0.203875000000     0.732166666667     0.414600000000     0.698      
C        C      0.249800000000     0.741366666667     0.541700000000     0.59       
C        C      0.100725000000     0.783700000000     0.443666666667     0.603      
C        C      0.121850000000     0.816000000000     0.426266666667    -0.824      
C        C      0.113175000000     0.857233333333     0.418733333333     0.7        
C        C      0.024750000000     0.791366666667     0.624966666667     0.592      
C        C      0.218900000000     0.875200000000     0.416666666667    -0.784      
C        C      0.031100000000     0.791466666667     0.583333333333    -0.784      
O        O      0.116325000000     0.673733333333     0.591566666667    -0.557      
O        O      0.037175000000     0.964633333333     0.569066666667    -0.553      
O        O      0.024650000000     0.905466666667     0.594533333333    -0.62       
O        O      0.154000000000     0.981400000000     0.642600000000    -0.393      
O        O      0.037075000000     0.936533333333     0.480566666667    -0.517      
O        O      0.239375000000     0.956333333333     0.469300000000    -0.64       
O        O      0.186625000000     0.896866666667     0.575100000000    -0.554      
O        O      0.171675000000     0.813833333333     0.597600000000    -0.559      
O        O      0.108200000000     0.771666666667     0.572133333333    -0.632      
O        O      0.129100000000     0.896066666667     0.524066666667    -0.389      
O        O      0.216975000000     0.902200000000     0.352766666667    -0.507      
O        O      0.240275000000     0.849866666667     0.364033333333    -0.626      
O        O      0.133675000000     0.992933333333     0.408433333333    -0.557      
O        O      0.212825000000     0.702033333333     0.430933333333    -0.553      
O        O      0.225350000000     0.761200000000     0.405466666667    -0.62       
O        O      0.096000000000     0.685266666667     0.357400000000    -0.393      
O        O      0.212925000000     0.730133333333     0.519433333333    -0.517      
O        O      0.010625000000     0.710333333333     0.530700000000    -0.64       
O        O      0.063375000000     0.769800000000     0.424900000000    -0.554      
O        O      0.078325000000     0.852833333333     0.402400000000    -0.559      
O        O      0.141800000000     0.895000000000     0.427866666667    -0.632      
O        O      0.120900000000     0.770600000000     0.475933333333    -0.389      
O        O      0.033025000000     0.764466666667     0.647233333333    -0.507      
O        O      0.009725000000     0.816800000000     0.635966666667    -0.626      
Eu       Eu     0.063765000000     0.689450000000     0.873463333333     1.858      
Eu       Eu     0.236990000000     0.878223333333     0.959870000000     1.822      
Eu       Eu     0.186235000000     0.977216666667     0.793203333333     1.859      
Eu       Eu     0.013010000000     0.788443333333     0.706796666667     1.823      
H        H      0.090575000000     0.916100000000     0.950666666667     0.255      
H        H      0.074500000000     0.907366666667     0.894500000000     0.257      
H        H      0.223150000000     0.850233333333     0.761033333333     0.244      
H        H      0.099075000000     0.836766666667     0.882666666667     0.255      
H        H      0.134650000000     0.871500000000     0.938833333333     0.256      
H        H      0.191900000000     0.869833333333     0.738966666667     0.242      
H        H      0.159425000000     0.750566666667     0.716000000000     0.255      
H        H      0.175500000000     0.759300000000     0.772166666667     0.257      
H        H      0.026850000000     0.816433333333     0.905633333333     0.244      
H        H      0.150925000000     0.829900000000     0.784000000000     0.255      
H        H      0.115350000000     0.795166666667     0.727833333333     0.256      
H        H      0.058100000000     0.796833333333     0.927700000000     0.242      
C        C      0.119975000000     0.976033333333     0.943666666667     0.606      
C        C      0.082700000000     0.930466666667     0.926266666667    -0.824      
C        C      0.046125000000     0.934500000000     0.918733333333     0.698      
C        C      0.000200000000     0.925300000000     0.791633333333     0.59       
C        C      0.149275000000     0.882966666667     0.889666666667     0.603      
C        C      0.128150000000     0.850666666667     0.907066666667    -0.824      
C        C      0.136825000000     0.809433333333     0.914600000000     0.7        
C        C      0.225250000000     0.875300000000     0.708366666667     0.592      
C        C      0.130025000000     0.690633333333     0.723000000000     0.606      
C        C      0.167300000000     0.736200000000     0.740400000000    -0.824      
C        C      0.203875000000     0.732166666667     0.747933333333     0.698      
C        C      0.249800000000     0.741366666667     0.875033333333     0.59       
C        C      0.100725000000     0.783700000000     0.777000000000     0.603      
C        C      0.121850000000     0.816000000000     0.759600000000    -0.824      
C        C      0.113175000000     0.857233333333     0.752066666667     0.7        
C        C      0.024750000000     0.791366666667     0.958300000000     0.592      
C        C      0.218900000000     0.875200000000     0.750000000000    -0.784      
C        C      0.031100000000     0.791466666667     0.916666666667    -0.784      
O        O      0.116325000000     0.673733333333     0.924900000000    -0.557      
O        O      0.037175000000     0.964633333333     0.902400000000    -0.553      
O        O      0.024650000000     0.905466666667     0.927866666667    -0.62       
O        O      0.154000000000     0.981400000000     0.975933333333    -0.393      
O        O      0.037075000000     0.936533333333     0.813900000000    -0.517      
O        O      0.239375000000     0.956333333333     0.802633333333    -0.64       
O        O      0.186625000000     0.896866666667     0.908433333333    -0.554      
O        O      0.171675000000     0.813833333333     0.930933333333    -0.559      
O        O      0.108200000000     0.771666666667     0.905466666667    -0.632      
O        O      0.129100000000     0.896066666667     0.857400000000    -0.389      
O        O      0.216975000000     0.902200000000     0.686100000000    -0.507      
O        O      0.240275000000     0.849866666667     0.697366666667    -0.626      
O        O      0.133675000000     0.992933333333     0.741766666667    -0.557      
O        O      0.212825000000     0.702033333333     0.764266666667    -0.553      
O        O      0.225350000000     0.761200000000     0.738800000000    -0.62       
O        O      0.096000000000     0.685266666667     0.690733333333    -0.393      
O        O      0.212925000000     0.730133333333     0.852766666667    -0.517      
O        O      0.010625000000     0.710333333333     0.864033333333    -0.64       
O        O      0.063375000000     0.769800000000     0.758233333333    -0.554      
O        O      0.078325000000     0.852833333333     0.735733333333    -0.559      
O        O      0.141800000000     0.895000000000     0.761200000000    -0.632      
O        O      0.120900000000     0.770600000000     0.809266666667    -0.389      
O        O      0.033025000000     0.764466666667     0.980566666667    -0.507      
O        O      0.009725000000     0.816800000000     0.969300000000    -0.626      
Eu       Eu     0.313765000000     0.022783333333     0.206796666667     1.858      
Eu       Eu     0.486990000000     0.211556666667     0.293203333333     1.822      
Eu       Eu     0.436235000000     0.310550000000     0.126536666667     1.859      
Eu       Eu     0.263010000000     0.121776666667     0.040130000000     1.823      
H        H      0.340575000000     0.249433333333     0.284000000000     0.255      
H        H      0.324500000000     0.240700000000     0.227833333333     0.257      
H        H      0.473150000000     0.183566666667     0.094366666667     0.244      
H        H      0.349075000000     0.170100000000     0.216000000000     0.255      
H        H      0.384650000000     0.204833333333     0.272166666667     0.256      
H        H      0.441900000000     0.203166666667     0.072300000000     0.242      
H        H      0.409425000000     0.083900000000     0.049333333333     0.255      
H        H      0.425500000000     0.092633333333     0.105500000000     0.257      
H        H      0.276850000000     0.149766666667     0.238966666667     0.244      
H        H      0.400925000000     0.163233333333     0.117333333333     0.255      
H        H      0.365350000000     0.128500000000     0.061166666667     0.256      
H        H      0.308100000000     0.130166666667     0.261033333333     0.242      
C        C      0.369975000000     0.309366666667     0.277000000000     0.606      
C        C      0.332700000000     0.263800000000     0.259600000000    -0.824      
C        C      0.296125000000     0.267833333333     0.252066666667     0.698      
C        C      0.250200000000     0.258633333333     0.124966666667     0.59       
C        C      0.399275000000     0.216300000000     0.223000000000     0.603      
C        C      0.378150000000     0.184000000000     0.240400000000    -0.824      
C        C      0.386825000000     0.142766666667     0.247933333333     0.7        
C        C      0.475250000000     0.208633333333     0.041700000000     0.592      
C        C      0.380025000000     0.023966666667     0.056333333333     0.606      
C        C      0.417300000000     0.069533333333     0.073733333333    -0.824      
C        C      0.453875000000     0.065500000000     0.081266666667     0.698      
C        C      0.499800000000     0.074700000000     0.208366666667     0.59       
C        C      0.350725000000     0.117033333333     0.110333333333     0.603      
C        C      0.371850000000     0.149333333333     0.092933333333    -0.824      
C        C      0.363175000000     0.190566666667     0.085400000000     0.7        
C        C      0.274750000000     0.124700000000     0.291633333333     0.592      
C        C      0.468900000000     0.208533333333     0.083333333333    -0.784      
C        C      0.281100000000     0.124800000000     0.250000000000    -0.784      
O        O      0.366325000000     0.007066666667     0.258233333333    -0.557      
O        O      0.287175000000     0.297966666667     0.235733333333    -0.553      
O        O      0.274650000000     0.238800000000     0.261200000000    -0.62       
O        O      0.404000000000     0.314733333333     0.309266666667    -0.393      
O        O      0.287075000000     0.269866666667     0.147233333333    -0.517      
O        O      0.489375000000     0.289666666667     0.135966666667    -0.64       
O        O      0.436625000000     0.230200000000     0.241766666667    -0.554      
O        O      0.421675000000     0.147166666667     0.264266666667    -0.559      
O        O      0.358200000000     0.105000000000     0.238800000000    -0.632      
O        O      0.379100000000     0.229400000000     0.190733333333    -0.389      
O        O      0.466975000000     0.235533333333     0.019433333333    -0.507      
O        O      0.490275000000     0.183200000000     0.030700000000    -0.626      
O        O      0.383675000000     0.326266666667     0.075100000000    -0.557      
O        O      0.462825000000     0.035366666667     0.097600000000    -0.553      
O        O      0.475350000000     0.094533333333     0.072133333333    -0.62       
O        O      0.346000000000     0.018600000000     0.024066666667    -0.393      
O        O      0.462925000000     0.063466666667     0.186100000000    -0.517      
O        O      0.260625000000     0.043666666667     0.197366666667    -0.64       
O        O      0.313375000000     0.103133333333     0.091566666667    -0.554      
O        O      0.328325000000     0.186166666667     0.069066666667    -0.559      
O        O      0.391800000000     0.228333333333     0.094533333333    -0.632      
O        O      0.370900000000     0.103933333333     0.142600000000    -0.389      
O        O      0.283025000000     0.097800000000     0.313900000000    -0.507      
O        O      0.259725000000     0.150133333333     0.302633333333    -0.626      
Eu       Eu     0.313765000000     0.022783333333     0.540130000000     1.858      
Eu       Eu     0.486990000000     0.211556666667     0.626536666667     1.822      
Eu       Eu     0.436235000000     0.310550000000     0.459870000000     1.859      
Eu       Eu     0.263010000000     0.121776666667     0.373463333333     1.823      
H        H      0.340575000000     0.249433333333     0.617333333333     0.255      
H        H      0.324500000000     0.240700000000     0.561166666667     0.257      
H        H      0.473150000000     0.183566666667     0.427700000000     0.244      
H        H      0.349075000000     0.170100000000     0.549333333333     0.255      
H        H      0.384650000000     0.204833333333     0.605500000000     0.256      
H        H      0.441900000000     0.203166666667     0.405633333333     0.242      
H        H      0.409425000000     0.083900000000     0.382666666667     0.255      
H        H      0.425500000000     0.092633333333     0.438833333333     0.257      
H        H      0.276850000000     0.149766666667     0.572300000000     0.244      
H        H      0.400925000000     0.163233333333     0.450666666667     0.255      
H        H      0.365350000000     0.128500000000     0.394500000000     0.256      
H        H      0.308100000000     0.130166666667     0.594366666667     0.242      
C        C      0.369975000000     0.309366666667     0.610333333333     0.606      
C        C      0.332700000000     0.263800000000     0.592933333333    -0.824      
C        C      0.296125000000     0.267833333333     0.585400000000     0.698      
C        C      0.250200000000     0.258633333333     0.458300000000     0.59       
C        C      0.399275000000     0.216300000000     0.556333333333     0.603      
C        C      0.378150000000     0.184000000000     0.573733333333    -0.824      
C        C      0.386825000000     0.142766666667     0.581266666667     0.7        
C        C      0.475250000000     0.208633333333     0.375033333333     0.592      
C        C      0.380025000000     0.023966666667     0.389666666667     0.606      
C        C      0.417300000000     0.069533333333     0.407066666667    -0.824      
C        C      0.453875000000     0.065500000000     0.414600000000     0.698      
C        C      0.499800000000     0.074700000000     0.541700000000     0.59       
C        C      0.350725000000     0.117033333333     0.443666666667     0.603      
C        C      0.371850000000     0.149333333333     0.426266666667    -0.824      
C        C      0.363175000000     0.190566666667     0.418733333333     0.7        
C        C      0.274750000000     0.124700000000     0.624966666667     0.592      
C        C      0.468900000000     0.208533333333     0.416666666667    -0.784      
C        C      0.281100000000     0.124800000000     0.583333333333    -0.784      
O        O      0.366325000000     0.007066666667     0.591566666667    -0.557      
O        O      0.287175000000     0.297966666667     0.569066666667    -0.553      
O        O      0.274650000000     0.238800000000     0.594533333333    -0.62       
O        O      0.404000000000     0.314733333333     0.642600000000    -0.393      
O        O      0.287075000000     0.269866666667     0.480566666667    -0.517      
O        O      0.489375000000     0.289666666667     0.469300000000    -0.64       
O        O      0.436625000000     0.230200000000     0.575100000000    -0.554      
O        O      0.421675000000     0.147166666667     0.597600000000    -0.559      
O        O      0.358200000000     0.105000000000     0.572133333333    -0.632      
O        O      0.379100000000     0.229400000000     0.524066666667    -0.389      
O        O      0.466975000000     0.235533333333     0.352766666667    -0.507      
O        O      0.490275000000     0.183200000000     0.364033333333    -0.626      
O        O      0.383675000000     0.326266666667     0.408433333333    -0.557      
O        O      0.462825000000     0.035366666667     0.430933333333    -0.553      
O        O      0.475350000000     0.094533333333     0.405466666667    -0.62       
O        O      0.346000000000     0.018600000000     0.357400000000    -0.393      
O        O      0.462925000000     0.063466666667     0.519433333333    -0.517      
O        O      0.260625000000     0.043666666667     0.530700000000    -0.64       
O        O      0.313375000000     0.103133333333     0.424900000000    -0.554      
O        O      0.328325000000     0.186166666667     0.402400000000    -0.559      
O        O      0.391800000000     0.228333333333     0.427866666667    -0.632      
O        O      0.370900000000     0.103933333333     0.475933333333    -0.389      
O        O      0.283025000000     0.097800000000     0.647233333333    -0.507      
O        O      0.259725000000     0.150133333333     0.635966666667    -0.626      
Eu       Eu     0.313765000000     0.022783333333     0.873463333333     1.858      
Eu       Eu     0.486990000000     0.211556666667     0.959870000000     1.822      
Eu       Eu     0.436235000000     0.310550000000     0.793203333333     1.859      
Eu       Eu     0.263010000000     0.121776666667     0.706796666667     1.823      
H        H      0.340575000000     0.249433333333     0.950666666667     0.255      
H        H      0.324500000000     0.240700000000     0.894500000000     0.257      
H        H      0.473150000000     0.183566666667     0.761033333333     0.244      
H        H      0.349075000000     0.170100000000     0.882666666667     0.255      
H        H      0.384650000000     0.204833333333     0.938833333333     0.256      
H        H      0.441900000000     0.203166666667     0.738966666667     0.242      
H        H      0.409425000000     0.083900000000     0.716000000000     0.255      
H        H      0.425500000000     0.092633333333     0.772166666667     0.257      
H        H      0.276850000000     0.149766666667     0.905633333333     0.244      
H        H      0.400925000000     0.163233333333     0.784000000000     0.255      
H        H      0.365350000000     0.128500000000     0.727833333333     0.256      
H        H      0.308100000000     0.130166666667     0.927700000000     0.242      
C        C      0.369975000000     0.309366666667     0.943666666667     0.606      
C        C      0.332700000000     0.263800000000     0.926266666667    -0.824      
C        C      0.296125000000     0.267833333333     0.918733333333     0.698      
C        C      0.250200000000     0.258633333333     0.791633333333     0.59       
C        C      0.399275000000     0.216300000000     0.889666666667     0.603      
C        C      0.378150000000     0.184000000000     0.907066666667    -0.824      
C        C      0.386825000000     0.142766666667     0.914600000000     0.7        
C        C      0.475250000000     0.208633333333     0.708366666667     0.592      
C        C      0.380025000000     0.023966666667     0.723000000000     0.606      
C        C      0.417300000000     0.069533333333     0.740400000000    -0.824      
C        C      0.453875000000     0.065500000000     0.747933333333     0.698      
C        C      0.499800000000     0.074700000000     0.875033333333     0.59       
C        C      0.350725000000     0.117033333333     0.777000000000     0.603      
C        C      0.371850000000     0.149333333333     0.759600000000    -0.824      
C        C      0.363175000000     0.190566666667     0.752066666667     0.7        
C        C      0.274750000000     0.124700000000     0.958300000000     0.592      
C        C      0.468900000000     0.208533333333     0.750000000000    -0.784      
C        C      0.281100000000     0.124800000000     0.916666666667    -0.784      
O        O      0.366325000000     0.007066666667     0.924900000000    -0.557      
O        O      0.287175000000     0.297966666667     0.902400000000    -0.553      
O        O      0.274650000000     0.238800000000     0.927866666667    -0.62       
O        O      0.404000000000     0.314733333333     0.975933333333    -0.393      
O        O      0.287075000000     0.269866666667     0.813900000000    -0.517      
O        O      0.489375000000     0.289666666667     0.802633333333    -0.64       
O        O      0.436625000000     0.230200000000     0.908433333333    -0.554      
O        O      0.421675000000     0.147166666667     0.930933333333    -0.559      
O        O      0.358200000000     0.105000000000     0.905466666667    -0.632      
O        O      0.379100000000     0.229400000000     0.857400000000    -0.389      
O        O      0.466975000000     0.235533333333     0.686100000000    -0.507      
O        O      0.490275000000     0.183200000000     0.697366666667    -0.626      
O        O      0.383675000000     0.326266666667     0.741766666667    -0.557      
O        O      0.462825000000     0.035366666667     0.764266666667    -0.553      
O        O      0.475350000000     0.094533333333     0.738800000000    -0.62       
O        O      0.346000000000     0.018600000000     0.690733333333    -0.393      
O        O      0.462925000000     0.063466666667     0.852766666667    -0.517      
O        O      0.260625000000     0.043666666667     0.864033333333    -0.64       
O        O      0.313375000000     0.103133333333     0.758233333333    -0.554      
O        O      0.328325000000     0.186166666667     0.735733333333    -0.559      
O        O      0.391800000000     0.228333333333     0.761200000000    -0.632      
O        O      0.370900000000     0.103933333333     0.809266666667    -0.389      
O        O      0.283025000000     0.097800000000     0.980566666667    -0.507      
O        O      0.259725000000     0.150133333333     0.969300000000    -0.626      
Eu       Eu     0.313765000000     0.356116666667     0.206796666667     1.858      
Eu       Eu     0.486990000000     0.544890000000     0.293203333333     1.822      
Eu       Eu     0.436235000000     0.643883333333     0.126536666667     1.859      
Eu       Eu     0.263010000000     0.455110000000     0.040130000000     1.823      
H        H      0.340575000000     0.582766666667     0.284000000000     0.255      
H        H      0.324500000000     0.574033333333     0.227833333333     0.257      
H        H      0.473150000000     0.516900000000     0.094366666667     0.244      
H        H      0.349075000000     0.503433333333     0.216000000000     0.255      
H        H      0.384650000000     0.538166666667     0.272166666667     0.256      
H        H      0.441900000000     0.536500000000     0.072300000000     0.242      
H        H      0.409425000000     0.417233333333     0.049333333333     0.255      
H        H      0.425500000000     0.425966666667     0.105500000000     0.257      
H        H      0.276850000000     0.483100000000     0.238966666667     0.244      
H        H      0.400925000000     0.496566666667     0.117333333333     0.255      
H        H      0.365350000000     0.461833333333     0.061166666667     0.256      
H        H      0.308100000000     0.463500000000     0.261033333333     0.242      
C        C      0.369975000000     0.642700000000     0.277000000000     0.606      
C        C      0.332700000000     0.597133333333     0.259600000000    -0.824      
C        C      0.296125000000     0.601166666667     0.252066666667     0.698      
C        C      0.250200000000     0.591966666667     0.124966666667     0.59       
C        C      0.399275000000     0.549633333333     0.223000000000     0.603      
C        C      0.378150000000     0.517333333333     0.240400000000    -0.824      
C        C      0.386825000000     0.476100000000     0.247933333333     0.7        
C        C      0.475250000000     0.541966666667     0.041700000000     0.592      
C        C      0.380025000000     0.357300000000     0.056333333333     0.606      
C        C      0.417300000000     0.402866666667     0.073733333333    -0.824      
C        C      0.453875000000     0.398833333333     0.081266666667     0.698      
C        C      0.499800000000     0.408033333333     0.208366666667     0.59       
C        C      0.350725000000     0.450366666667     0.110333333333     0.603      
C        C      0.371850000000     0.482666666667     0.092933333333    -0.824      
C        C      0.363175000000     0.523900000000     0.085400000000     0.7        
C        C      0.274750000000     0.458033333333     0.291633333333     0.592      
C        C      0.468900000000     0.541866666667     0.083333333333    -0.784      
C        C      0.281100000000     0.458133333333     0.250000000000    -0.784      
O        O      0.366325000000     0.340400000000     0.258233333333    -0.557      
O        O      0.287175000000     0.631300000000     0.235733333333    -0.553      
O        O      0.274650000000     0.572133333333     0.261200000000    -0.62       
O        O      0.404000000000     0.648066666667     0.309266666667    -0.393      
O        O      0.287075000000     0.603200000000     0.147233333333    -0.517      
O        O      0.489375000000     0.623000000000     0.135966666667    -0.64       
O        O      0.436625000000     0.563533333333     0.241766666667    -0.554      
O        O      0.421675000000     0.480500000000     0.264266666667    -0.559      
O        O      0.358200000000     0.438333333333     0.238800000000    -0.632      
O        O      0.379100000000     0.562733333333     0.190733333333    -0.389      
O        O      0.466975000000     0.568866666667     0.019433333333    -0.507      
O        O      0.490275000000     0.516533333333     0.030700000000    -0.626      
O        O      0.383675000000     0.659600000000     0.075100000000    -0.557      
O        O      0.462825000000     0.368700000000     0.097600000000    -0.553      
O        O      0.475350000000     0.427866666667     0.072133333333    -0.62       
O        O      0.346000000000     0.351933333333     0.024066666667    -0.393      
O        O      0.462925000000     0.396800000000     0.186100000000    -0.517      
O        O      0.260625000000     0.377000000000     0.197366666667    -0.64       
O        O      0.313375000000     0.436466666667     0.091566666667    -0.554      
O        O      0.328325000000     0.519500000000     0.069066666667    -0.559      
O        O      0.391800000000     0.561666666667     0.094533333333    -0.632      
O        O      0.370900000000     0.437266666667     0.142600000000    -0.389      
O        O      0.283025000000     0.431133333333     0.313900000000    -0.507      
O        O      0.259725000000     0.483466666667     0.302633333333    -0.626      
Eu       Eu     0.313765000000     0.356116666667     0.540130000000     1.858      
Eu       Eu     0.486990000000     0.544890000000     0.626536666667     1.822      
Eu       Eu     0.436235000000     0.643883333333     0.459870000000     1.859      
Eu       Eu     0.263010000000     0.455110000000     0.373463333333     1.823      
H        H      0.340575000000     0.582766666667     0.617333333333     0.255      
H        H      0.324500000000     0.574033333333     0.561166666667     0.257      
H        H      0.473150000000     0.516900000000     0.427700000000     0.244      
H        H      0.349075000000     0.503433333333     0.549333333333     0.255      
H        H      0.384650000000     0.538166666667     0.605500000000     0.256      
H        H      0.441900000000     0.536500000000     0.405633333333     0.242      
H        H      0.409425000000     0.417233333333     0.382666666667     0.255      
H        H      0.425500000000     0.425966666667     0.438833333333     0.257      
H        H      0.276850000000     0.483100000000     0.572300000000     0.244      
H        H      0.400925000000     0.496566666667     0.450666666667     0.255      
H        H      0.365350000000     0.461833333333     0.394500000000     0.256      
H        H      0.308100000000     0.463500000000     0.594366666667     0.242      
C        C      0.369975000000     0.642700000000     0.610333333333     0.606      
C        C      0.332700000000     0.597133333333     0.592933333333    -0.824      
C        C      0.296125000000     0.601166666667     0.585400000000     0.698      
C        C      0.250200000000     0.591966666667     0.458300000000     0.59       
C        C      0.399275000000     0.549633333333     0.556333333333     0.603      
C        C      0.378150000000     0.517333333333     0.573733333333    -0.824      
C        C      0.386825000000     0.476100000000     0.581266666667     0.7        
C        C      0.475250000000     0.541966666667     0.375033333333     0.592      
C        C      0.380025000000     0.357300000000     0.389666666667     0.606      
C        C      0.417300000000     0.402866666667     0.407066666667    -0.824      
C        C      0.453875000000     0.398833333333     0.414600000000     0.698      
C        C      0.499800000000     0.408033333333     0.541700000000     0.59       
C        C      0.350725000000     0.450366666667     0.443666666667     0.603      
C        C      0.371850000000     0.482666666667     0.426266666667    -0.824      
C        C      0.363175000000     0.523900000000     0.418733333333     0.7        
C        C      0.274750000000     0.458033333333     0.624966666667     0.592      
C        C      0.468900000000     0.541866666667     0.416666666667    -0.784      
C        C      0.281100000000     0.458133333333     0.583333333333    -0.784      
O        O      0.366325000000     0.340400000000     0.591566666667    -0.557      
O        O      0.287175000000     0.631300000000     0.569066666667    -0.553      
O        O      0.274650000000     0.572133333333     0.594533333333    -0.62       
O        O      0.404000000000     0.648066666667     0.642600000000    -0.393      
O        O      0.287075000000     0.603200000000     0.480566666667    -0.517      
O        O      0.489375000000     0.623000000000     0.469300000000    -0.64       
O        O      0.436625000000     0.563533333333     0.575100000000    -0.554      
O        O      0.421675000000     0.480500000000     0.597600000000    -0.559      
O        O      0.358200000000     0.438333333333     0.572133333333    -0.632      
O        O      0.379100000000     0.562733333333     0.524066666667    -0.389      
O        O      0.466975000000     0.568866666667     0.352766666667    -0.507      
O        O      0.490275000000     0.516533333333     0.364033333333    -0.626      
O        O      0.383675000000     0.659600000000     0.408433333333    -0.557      
O        O      0.462825000000     0.368700000000     0.430933333333    -0.553      
O        O      0.475350000000     0.427866666667     0.405466666667    -0.62       
O        O      0.346000000000     0.351933333333     0.357400000000    -0.393      
O        O      0.462925000000     0.396800000000     0.519433333333    -0.517      
O        O      0.260625000000     0.377000000000     0.530700000000    -0.64       
O        O      0.313375000000     0.436466666667     0.424900000000    -0.554      
O        O      0.328325000000     0.519500000000     0.402400000000    -0.559      
O        O      0.391800000000     0.561666666667     0.427866666667    -0.632      
O        O      0.370900000000     0.437266666667     0.475933333333    -0.389      
O        O      0.283025000000     0.431133333333     0.647233333333    -0.507      
O        O      0.259725000000     0.483466666667     0.635966666667    -0.626      
Eu       Eu     0.313765000000     0.356116666667     0.873463333333     1.858      
Eu       Eu     0.486990000000     0.544890000000     0.959870000000     1.822      
Eu       Eu     0.436235000000     0.643883333333     0.793203333333     1.859      
Eu       Eu     0.263010000000     0.455110000000     0.706796666667     1.823      
H        H      0.340575000000     0.582766666667     0.950666666667     0.255      
H        H      0.324500000000     0.574033333333     0.894500000000     0.257      
H        H      0.473150000000     0.516900000000     0.761033333333     0.244      
H        H      0.349075000000     0.503433333333     0.882666666667     0.255      
H        H      0.384650000000     0.538166666667     0.938833333333     0.256      
H        H      0.441900000000     0.536500000000     0.738966666667     0.242      
H        H      0.409425000000     0.417233333333     0.716000000000     0.255      
H        H      0.425500000000     0.425966666667     0.772166666667     0.257      
H        H      0.276850000000     0.483100000000     0.905633333333     0.244      
H        H      0.400925000000     0.496566666667     0.784000000000     0.255      
H        H      0.365350000000     0.461833333333     0.727833333333     0.256      
H        H      0.308100000000     0.463500000000     0.927700000000     0.242      
C        C      0.369975000000     0.642700000000     0.943666666667     0.606      
C        C      0.332700000000     0.597133333333     0.926266666667    -0.824      
C        C      0.296125000000     0.601166666667     0.918733333333     0.698      
C        C      0.250200000000     0.591966666667     0.791633333333     0.59       
C        C      0.399275000000     0.549633333333     0.889666666667     0.603      
C        C      0.378150000000     0.517333333333     0.907066666667    -0.824      
C        C      0.386825000000     0.476100000000     0.914600000000     0.7        
C        C      0.475250000000     0.541966666667     0.708366666667     0.592      
C        C      0.380025000000     0.357300000000     0.723000000000     0.606      
C        C      0.417300000000     0.402866666667     0.740400000000    -0.824      
C        C      0.453875000000     0.398833333333     0.747933333333     0.698      
C        C      0.499800000000     0.408033333333     0.875033333333     0.59       
C        C      0.350725000000     0.450366666667     0.777000000000     0.603      
C        C      0.371850000000     0.482666666667     0.759600000000    -0.824      
C        C      0.363175000000     0.523900000000     0.752066666667     0.7        
C        C      0.274750000000     0.458033333333     0.958300000000     0.592      
C        C      0.468900000000     0.541866666667     0.750000000000    -0.784      
C        C      0.281100000000     0.458133333333     0.916666666667    -0.784      
O        O      0.366325000000     0.340400000000     0.924900000000    -0.557      
O        O      0.287175000000     0.631300000000     0.902400000000    -0.553      
O        O      0.274650000000     0.572133333333     0.927866666667    -0.62       
O        O      0.404000000000     0.648066666667     0.975933333333    -0.393      
O        O      0.287075000000     0.603200000000     0.813900000000    -0.517      
O        O      0.489375000000     0.623000000000     0.802633333333    -0.64       
O        O      0.436625000000     0.563533333333     0.908433333333    -0.554      
O        O      0.421675000000     0.480500000000     0.930933333333    -0.559      
O        O      0.358200000000     0.438333333333     0.905466666667    -0.632      
O        O      0.379100000000     0.562733333333     0.857400000000    -0.389      
O        O      0.466975000000     0.568866666667     0.686100000000    -0.507      
O        O      0.490275000000     0.516533333333     0.697366666667    -0.626      
O        O      0.383675000000     0.659600000000     0.741766666667    -0.557      
O        O      0.462825000000     0.368700000000     0.764266666667    -0.553      
O        O      0.475350000000     0.427866666667     0.738800000000    -0.62       
O        O      0.346000000000     0.351933333333     0.690733333333    -0.393      
O        O      0.462925000000     0.396800000000     0.852766666667    -0.517      
O        O      0.260625000000     0.377000000000     0.864033333333    -0.64       
O        O      0.313375000000     0.436466666667     0.758233333333    -0.554      
O        O      0.328325000000     0.519500000000     0.735733333333    -0.559      
O        O      0.391800000000     0.561666666667     0.761200000000    -0.632      
O        O      0.370900000000     0.437266666667     0.809266666667    -0.389      
O        O      0.283025000000     0.431133333333     0.980566666667    -0.507      
O        O      0.259725000000     0.483466666667     0.969300000000    -0.626      
Eu       Eu     0.313765000000     0.689450000000     0.206796666667     1.858      
Eu       Eu     0.486990000000     0.878223333333     0.293203333333     1.822      
Eu       Eu     0.436235000000     0.977216666667     0.126536666667     1.859      
Eu       Eu     0.263010000000     0.788443333333     0.040130000000     1.823      
H        H      0.340575000000     0.916100000000     0.284000000000     0.255      
H        H      0.324500000000     0.907366666667     0.227833333333     0.257      
H        H      0.473150000000     0.850233333333     0.094366666667     0.244      
H        H      0.349075000000     0.836766666667     0.216000000000     0.255      
H        H      0.384650000000     0.871500000000     0.272166666667     0.256      
H        H      0.441900000000     0.869833333333     0.072300000000     0.242      
H        H      0.409425000000     0.750566666667     0.049333333333     0.255      
H        H      0.425500000000     0.759300000000     0.105500000000     0.257      
H        H      0.276850000000     0.816433333333     0.238966666667     0.244      
H        H      0.400925000000     0.829900000000     0.117333333333     0.255      
H        H      0.365350000000     0.795166666667     0.061166666667     0.256      
H        H      0.308100000000     0.796833333333     0.261033333333     0.242      
C        C      0.369975000000     0.976033333333     0.277000000000     0.606      
C        C      0.332700000000     0.930466666667     0.259600000000    -0.824      
C        C      0.296125000000     0.934500000000     0.252066666667     0.698      
C        C      0.250200000000     0.925300000000     0.124966666667     0.59       
C        C      0.399275000000     0.882966666667     0.223000000000     0.603      
C        C      0.378150000000     0.850666666667     0.240400000000    -0.824      
C        C      0.386825000000     0.809433333333     0.247933333333     0.7        
C        C      0.475250000000     0.875300000000     0.041700000000     0.592      
C        C      0.380025000000     0.690633333333     0.056333333333     0.606      
C        C      0.417300000000     0.736200000000     0.073733333333    -0.824      
C        C      0.453875000000     0.732166666667     0.081266666667     0.698      
C        C      0.499800000000     0.741366666667     0.208366666667     0.59       
C        C      0.350725000000     0.783700000000     0.110333333333     0.603      
C        C      0.371850000000     0.816000000000     0.092933333333    -0.824      
C        C      0.363175000000     0.857233333333     0.085400000000     0.7        
C        C      0.274750000000     0.791366666667     0.291633333333     0.592      
C        C      0.468900000000     0.875200000000     0.083333333333    -0.784      
C        C      0.281100000000     0.791466666667     0.250000000000    -0.784      
O        O      0.366325000000     0.673733333333     0.258233333333    -0.557      
O        O      0.287175000000     0.964633333333     0.235733333333    -0.553      
O        O      0.274650000000     0.905466666667     0.261200000000    -0.62       
O        O      0.404000000000     0.981400000000     0.309266666667    -0.393      
O        O      0.287075000000     0.936533333333     0.147233333333    -0.517      
O        O      0.489375000000     0.956333333333     0.135966666667    -0.64       
O        O      0.436625000000     0.896866666667     0.241766666667    -0.554      
O        O      0.421675000000     0.813833333333     0.264266666667    -0.559      
O        O      0.358200000000     0.771666666667     0.238800000000    -0.632      
O        O      0.379100000000     0.896066666667     0.190733333333    -0.389      
O        O      0.466975000000     0.902200000000     0.019433333333    -0.507      
O        O      0.490275000000     0.849866666667     0.030700000000    -0.626      
O        O      0.383675000000     0.992933333333     0.075100000000    -0.557      
O        O      0.462825000000     0.702033333333     0.097600000000    -0.553      
O        O      0.475350000000     0.761200000000     0.072133333333    -0.62       
O        O      0.346000000000     0.685266666667     0.024066666667    -0.393      
O        O      0.462925000000     0.730133333333     0.186100000000    -0.517      
O        O      0.260625000000     0.710333333333     0.197366666667    -0.64       
O        O      0.313375000000     0.769800000000     0.091566666667    -0.554      
O        O      0.328325000000     0.852833333333     0.069066666667    -0.559      
O        O      0.391800000000     0.895000000000     0.094533333333    -0.632      
O        O      0.370900000000     0.770600000000     0.142600000000    -0.389      
O        O      0.283025000000     0.764466666667     0.313900000000    -0.507      
O        O      0.259725000000     0.816800000000     0.302633333333    -0.626      
Eu       Eu     0.313765000000     0.689450000000     0.540130000000     1.858      
Eu       Eu     0.486990000000     0.878223333333     0.626536666667     1.822      
Eu       Eu     0.436235000000     0.977216666667     0.459870000000     1.859      
Eu       Eu     0.263010000000     0.788443333333     0.373463333333     1.823      
H        H      0.340575000000     0.916100000000     0.617333333333     0.255      
H        H      0.324500000000     0.907366666667     0.561166666667     0.257      
H        H      0.473150000000     0.850233333333     0.427700000000     0.244      
H        H      0.349075000000     0.836766666667     0.549333333333     0.255      
H        H      0.384650000000     0.871500000000     0.605500000000     0.256      
H        H      0.441900000000     0.869833333333     0.405633333333     0.242      
H        H      0.409425000000     0.750566666667     0.382666666667     0.255      
H        H      0.425500000000     0.759300000000     0.438833333333     0.257      
H        H      0.276850000000     0.816433333333     0.572300000000     0.244      
H        H      0.400925000000     0.829900000000     0.450666666667     0.255      
H        H      0.365350000000     0.795166666667     0.394500000000     0.256      
H        H      0.308100000000     0.796833333333     0.594366666667     0.242      
C        C      0.369975000000     0.976033333333     0.610333333333     0.606      
C        C      0.332700000000     0.930466666667     0.592933333333    -0.824      
C        C      0.296125000000     0.934500000000     0.585400000000     0.698      
C        C      0.250200000000     0.925300000000     0.458300000000     0.59       
C        C      0.399275000000     0.882966666667     0.556333333333     0.603      
C        C      0.378150000000     0.850666666667     0.573733333333    -0.824      
C        C      0.386825000000     0.809433333333     0.581266666667     0.7        
C        C      0.475250000000     0.875300000000     0.375033333333     0.592      
C        C      0.380025000000     0.690633333333     0.389666666667     0.606      
C        C      0.417300000000     0.736200000000     0.407066666667    -0.824      
C        C      0.453875000000     0.732166666667     0.414600000000     0.698      
C        C      0.499800000000     0.741366666667     0.541700000000     0.59       
C        C      0.350725000000     0.783700000000     0.443666666667     0.603      
C        C      0.371850000000     0.816000000000     0.426266666667    -0.824      
C        C      0.363175000000     0.857233333333     0.418733333333     0.7        
C        C      0.274750000000     0.791366666667     0.624966666667     0.592      
C        C      0.468900000000     0.875200000000     0.416666666667    -0.784      
C        C      0.281100000000     0.791466666667     0.583333333333    -0.784      
O        O      0.366325000000     0.673733333333     0.591566666667    -0.557      
O        O      0.287175000000     0.964633333333     0.569066666667    -0.553      
O        O      0.274650000000     0.905466666667     0.594533333333    -0.62       
O        O      0.404000000000     0.981400000000     0.642600000000    -0.393      
O        O      0.287075000000     0.936533333333     0.480566666667    -0.517      
O        O      0.489375000000     0.956333333333     0.469300000000    -0.64       
O        O      0.436625000000     0.896866666667     0.575100000000    -0.554      
O        O      0.421675000000     0.813833333333     0.597600000000    -0.559      
O        O      0.358200000000     0.771666666667     0.572133333333    -0.632      
O        O      0.379100000000     0.896066666667     0.524066666667    -0.389      
O        O      0.466975000000     0.902200000000     0.352766666667    -0.507      
O        O      0.490275000000     0.849866666667     0.364033333333    -0.626      
O        O      0.383675000000     0.992933333333     0.408433333333    -0.557      
O        O      0.462825000000     0.702033333333     0.430933333333    -0.553      
O        O      0.475350000000     0.761200000000     0.405466666667    -0.62       
O        O      0.346000000000     0.685266666667     0.357400000000    -0.393      
O        O      0.462925000000     0.730133333333     0.519433333333    -0.517      
O        O      0.260625000000     0.710333333333     0.530700000000    -0.64       
O        O      0.313375000000     0.769800000000     0.424900000000    -0.554      
O        O      0.328325000000     0.852833333333     0.402400000000    -0.559      
O        O      0.391800000000     0.895000000000     0.427866666667    -0.632      
O        O      0.370900000000     0.770600000000     0.475933333333    -0.389      
O        O      0.283025000000     0.764466666667     0.647233333333    -0.507      
O        O      0.259725000000     0.816800000000     0.635966666667    -0.626      
Eu       Eu     0.313765000000     0.689450000000     0.873463333333     1.858      
Eu       Eu     0.486990000000     0.878223333333     0.959870000000     1.822      
Eu       Eu     0.436235000000     0.977216666667     0.793203333333     1.859      
Eu       Eu     0.263010000000     0.788443333333     0.706796666667     1.823      
H        H      0.340575000000     0.916100000000     0.950666666667     0.255      
H        H      0.324500000000     0.907366666667     0.894500000000     0.257      
H        H      0.473150000000     0.850233333333     0.761033333333     0.244      
H        H      0.349075000000     0.836766666667     0.882666666667     0.255      
H        H      0.384650000000     0.871500000000     0.938833333333     0.256      
H        H      0.441900000000     0.869833333333     0.738966666667     0.242      
H        H      0.409425000000     0.750566666667     0.716000000000     0.255      
H        H      0.425500000000     0.759300000000     0.772166666667     0.257      
H        H      0.276850000000     0.816433333333     0.905633333333     0.244      
H        H      0.400925000000     0.829900000000     0.784000000000     0.255      
H        H      0.365350000000     0.795166666667     0.727833333333     0.256      
H        H      0.308100000000     0.796833333333     0.927700000000     0.242      
C        C      0.369975000000     0.976033333333     0.943666666667     0.606      
C        C      0.332700000000     0.930466666667     0.926266666667    -0.824      
C        C      0.296125000000     0.934500000000     0.918733333333     0.698      
C        C      0.250200000000     0.925300000000     0.791633333333     0.59       
C        C      0.399275000000     0.882966666667     0.889666666667     0.603      
C        C      0.378150000000     0.850666666667     0.907066666667    -0.824      
C        C      0.386825000000     0.809433333333     0.914600000000     0.7        
C        C      0.475250000000     0.875300000000     0.708366666667     0.592      
C        C      0.380025000000     0.690633333333     0.723000000000     0.606      
C        C      0.417300000000     0.736200000000     0.740400000000    -0.824      
C        C      0.453875000000     0.732166666667     0.747933333333     0.698      
C        C      0.499800000000     0.741366666667     0.875033333333     0.59       
C        C      0.350725000000     0.783700000000     0.777000000000     0.603      
C        C      0.371850000000     0.816000000000     0.759600000000    -0.824      
C        C      0.363175000000     0.857233333333     0.752066666667     0.7        
C        C      0.274750000000     0.791366666667     0.958300000000     0.592      
C        C      0.468900000000     0.875200000000     0.750000000000    -0.784      
C        C      0.281100000000     0.791466666667     0.916666666667    -0.784      
O        O      0.366325000000     0.673733333333     0.924900000000    -0.557      
O        O      0.287175000000     0.964633333333     0.902400000000    -0.553      
O        O      0.274650000000     0.905466666667     0.927866666667    -0.62       
O        O      0.404000000000     0.981400000000     0.975933333333    -0.393      
O        O      0.287075000000     0.936533333333     0.813900000000    -0.517      
O        O      0.489375000000     0.956333333333     0.802633333333    -0.64       
O        O      0.436625000000     0.896866666667     0.908433333333    -0.554      
O        O      0.421675000000     0.813833333333     0.930933333333    -0.559      
O        O      0.358200000000     0.771666666667     0.905466666667    -0.632      
O        O      0.379100000000     0.896066666667     0.857400000000    -0.389      
O        O      0.466975000000     0.902200000000     0.686100000000    -0.507      
O        O      0.490275000000     0.849866666667     0.697366666667    -0.626      
O        O      0.383675000000     0.992933333333     0.741766666667    -0.557      
O        O      0.462825000000     0.702033333333     0.764266666667    -0.553      
O        O      0.475350000000     0.761200000000     0.738800000000    -0.62       
O        O      0.346000000000     0.685266666667     0.690733333333    -0.393      
O        O      0.462925000000     0.730133333333     0.852766666667    -0.517      
O        O      0.260625000000     0.710333333333     0.864033333333    -0.64       
O        O      0.313375000000     0.769800000000     0.758233333333    -0.554      
O        O      0.328325000000     0.852833333333     0.735733333333    -0.559      
O        O      0.391800000000     0.895000000000     0.761200000000    -0.632      
O        O      0.370900000000     0.770600000000     0.809266666667    -0.389      
O        O      0.283025000000     0.764466666667     0.980566666667    -0.507      
O        O      0.259725000000     0.816800000000     0.969300000000    -0.626      
Eu       Eu     0.563765000000     0.022783333333     0.206796666667     1.858      
Eu       Eu     0.736990000000     0.211556666667     0.293203333333     1.822      
Eu       Eu     0.686235000000     0.310550000000     0.126536666667     1.859      
Eu       Eu     0.513010000000     0.121776666667     0.040130000000     1.823      
H        H      0.590575000000     0.249433333333     0.284000000000     0.255      
H        H      0.574500000000     0.240700000000     0.227833333333     0.257      
H        H      0.723150000000     0.183566666667     0.094366666667     0.244      
H        H      0.599075000000     0.170100000000     0.216000000000     0.255      
H        H      0.634650000000     0.204833333333     0.272166666667     0.256      
H        H      0.691900000000     0.203166666667     0.072300000000     0.242      
H        H      0.659425000000     0.083900000000     0.049333333333     0.255      
H        H      0.675500000000     0.092633333333     0.105500000000     0.257      
H        H      0.526850000000     0.149766666667     0.238966666667     0.244      
H        H      0.650925000000     0.163233333333     0.117333333333     0.255      
H        H      0.615350000000     0.128500000000     0.061166666667     0.256      
H        H      0.558100000000     0.130166666667     0.261033333333     0.242      
C        C      0.619975000000     0.309366666667     0.277000000000     0.606      
C        C      0.582700000000     0.263800000000     0.259600000000    -0.824      
C        C      0.546125000000     0.267833333333     0.252066666667     0.698      
C        C      0.500200000000     0.258633333333     0.124966666667     0.59       
C        C      0.649275000000     0.216300000000     0.223000000000     0.603      
C        C      0.628150000000     0.184000000000     0.240400000000    -0.824      
C        C      0.636825000000     0.142766666667     0.247933333333     0.7        
C        C      0.725250000000     0.208633333333     0.041700000000     0.592      
C        C      0.630025000000     0.023966666667     0.056333333333     0.606      
C        C      0.667300000000     0.069533333333     0.073733333333    -0.824      
C        C      0.703875000000     0.065500000000     0.081266666667     0.698      
C        C      0.749800000000     0.074700000000     0.208366666667     0.59       
C        C      0.600725000000     0.117033333333     0.110333333333     0.603      
C        C      0.621850000000     0.149333333333     0.092933333333    -0.824      
C        C      0.613175000000     0.190566666667     0.085400000000     0.7        
C        C      0.524750000000     0.124700000000     0.291633333333     0.592      
C        C      0.718900000000     0.208533333333     0.083333333333    -0.784      
C        C      0.531100000000     0.124800000000     0.250000000000    -0.784      
O        O      0.616325000000     0.007066666667     0.258233333333    -0.557      
O        O      0.537175000000     0.297966666667     0.235733333333    -0.553      
O        O      0.524650000000     0.238800000000     0.261200000000    -0.62       
O        O      0.654000000000     0.314733333333     0.309266666667    -0.393      
O        O      0.537075000000     0.269866666667     0.147233333333    -0.517      
O        O      0.739375000000     0.289666666667     0.135966666667    -0.64       
O        O      0.686625000000     0.230200000000     0.241766666667    -0.554      
O        O      0.671675000000     0.147166666667     0.264266666667    -0.559      
O        O      0.608200000000     0.105000000000     0.238800000000    -0.632      
O        O      0.629100000000     0.229400000000     0.190733333333    -0.389      
O        O      0.716975000000     0.235533333333     0.019433333333    -0.507      
O        O      0.740275000000     0.183200000000     0.030700000000    -0.626      
O        O      0.633675000000     0.326266666667     0.075100000000    -0.557      
O        O      0.712825000000     0.035366666667     0.097600000000    -0.553      
O        O      0.725350000000     0.094533333333     0.072133333333    -0.62       
O        O      0.596000000000     0.018600000000     0.024066666667    -0.393      
O        O      0.712925000000     0.063466666667     0.186100000000    -0.517      
O        O      0.510625000000     0.043666666667     0.197366666667    -0.64       
O        O      0.563375000000     0.103133333333     0.091566666667    -0.554      
O        O      0.578325000000     0.186166666667     0.069066666667    -0.559      
O        O      0.641800000000     0.228333333333     0.094533333333    -0.632      
O        O      0.620900000000     0.103933333333     0.142600000000    -0.389      
O        O      0.533025000000     0.097800000000     0.313900000000    -0.507      
O        O      0.509725000000     0.150133333333     0.302633333333    -0.626      
Eu       Eu     0.563765000000     0.022783333333     0.540130000000     1.858      
Eu       Eu     0.736990000000     0.211556666667     0.626536666667     1.822      
Eu       Eu     0.686235000000     0.310550000000     0.459870000000     1.859      
Eu       Eu     0.513010000000     0.121776666667     0.373463333333     1.823      
H        H      0.590575000000     0.249433333333     0.617333333333     0.255      
H        H      0.574500000000     0.240700000000     0.561166666667     0.257      
H        H      0.723150000000     0.183566666667     0.427700000000     0.244      
H        H      0.599075000000     0.170100000000     0.549333333333     0.255      
H        H      0.634650000000     0.204833333333     0.605500000000     0.256      
H        H      0.691900000000     0.203166666667     0.405633333333     0.242      
H        H      0.659425000000     0.083900000000     0.382666666667     0.255      
H        H      0.675500000000     0.092633333333     0.438833333333     0.257      
H        H      0.526850000000     0.149766666667     0.572300000000     0.244      
H        H      0.650925000000     0.163233333333     0.450666666667     0.255      
H        H      0.615350000000     0.128500000000     0.394500000000     0.256      
H        H      0.558100000000     0.130166666667     0.594366666667     0.242      
C        C      0.619975000000     0.309366666667     0.610333333333     0.606      
C        C      0.582700000000     0.263800000000     0.592933333333    -0.824      
C        C      0.546125000000     0.267833333333     0.585400000000     0.698      
C        C      0.500200000000     0.258633333333     0.458300000000     0.59       
C        C      0.649275000000     0.216300000000     0.556333333333     0.603      
C        C      0.628150000000     0.184000000000     0.573733333333    -0.824      
C        C      0.636825000000     0.142766666667     0.581266666667     0.7        
C        C      0.725250000000     0.208633333333     0.375033333333     0.592      
C        C      0.630025000000     0.023966666667     0.389666666667     0.606      
C        C      0.667300000000     0.069533333333     0.407066666667    -0.824      
C        C      0.703875000000     0.065500000000     0.414600000000     0.698      
C        C      0.749800000000     0.074700000000     0.541700000000     0.59       
C        C      0.600725000000     0.117033333333     0.443666666667     0.603      
C        C      0.621850000000     0.149333333333     0.426266666667    -0.824      
C        C      0.613175000000     0.190566666667     0.418733333333     0.7        
C        C      0.524750000000     0.124700000000     0.624966666667     0.592      
C        C      0.718900000000     0.208533333333     0.416666666667    -0.784      
C        C      0.531100000000     0.124800000000     0.583333333333    -0.784      
O        O      0.616325000000     0.007066666667     0.591566666667    -0.557      
O        O      0.537175000000     0.297966666667     0.569066666667    -0.553      
O        O      0.524650000000     0.238800000000     0.594533333333    -0.62       
O        O      0.654000000000     0.314733333333     0.642600000000    -0.393      
O        O      0.537075000000     0.269866666667     0.480566666667    -0.517      
O        O      0.739375000000     0.289666666667     0.469300000000    -0.64       
O        O      0.686625000000     0.230200000000     0.575100000000    -0.554      
O        O      0.671675000000     0.147166666667     0.597600000000    -0.559      
O        O      0.608200000000     0.105000000000     0.572133333333    -0.632      
O        O      0.629100000000     0.229400000000     0.524066666667    -0.389      
O        O      0.716975000000     0.235533333333     0.352766666667    -0.507      
O        O      0.740275000000     0.183200000000     0.364033333333    -0.626      
O        O      0.633675000000     0.326266666667     0.408433333333    -0.557      
O        O      0.712825000000     0.035366666667     0.430933333333    -0.553      
O        O      0.725350000000     0.094533333333     0.405466666667    -0.62       
O        O      0.596000000000     0.018600000000     0.357400000000    -0.393      
O        O      0.712925000000     0.063466666667     0.519433333333    -0.517      
O        O      0.510625000000     0.043666666667     0.530700000000    -0.64       
O        O      0.563375000000     0.103133333333     0.424900000000    -0.554      
O        O      0.578325000000     0.186166666667     0.402400000000    -0.559      
O        O      0.641800000000     0.228333333333     0.427866666667    -0.632      
O        O      0.620900000000     0.103933333333     0.475933333333    -0.389      
O        O      0.533025000000     0.097800000000     0.647233333333    -0.507      
O        O      0.509725000000     0.150133333333     0.635966666667    -0.626      
Eu       Eu     0.563765000000     0.022783333333     0.873463333333     1.858      
Eu       Eu     0.736990000000     0.211556666667     0.959870000000     1.822      
Eu       Eu     0.686235000000     0.310550000000     0.793203333333     1.859      
Eu       Eu     0.513010000000     0.121776666667     0.706796666667     1.823      
H        H      0.590575000000     0.249433333333     0.950666666667     0.255      
H        H      0.574500000000     0.240700000000     0.894500000000     0.257      
H        H      0.723150000000     0.183566666667     0.761033333333     0.244      
H        H      0.599075000000     0.170100000000     0.882666666667     0.255      
H        H      0.634650000000     0.204833333333     0.938833333333     0.256      
H        H      0.691900000000     0.203166666667     0.738966666667     0.242      
H        H      0.659425000000     0.083900000000     0.716000000000     0.255      
H        H      0.675500000000     0.092633333333     0.772166666667     0.257      
H        H      0.526850000000     0.149766666667     0.905633333333     0.244      
H        H      0.650925000000     0.163233333333     0.784000000000     0.255      
H        H      0.615350000000     0.128500000000     0.727833333333     0.256      
H        H      0.558100000000     0.130166666667     0.927700000000     0.242      
C        C      0.619975000000     0.309366666667     0.943666666667     0.606      
C        C      0.582700000000     0.263800000000     0.926266666667    -0.824      
C        C      0.546125000000     0.267833333333     0.918733333333     0.698      
C        C      0.500200000000     0.258633333333     0.791633333333     0.59       
C        C      0.649275000000     0.216300000000     0.889666666667     0.603      
C        C      0.628150000000     0.184000000000     0.907066666667    -0.824      
C        C      0.636825000000     0.142766666667     0.914600000000     0.7        
C        C      0.725250000000     0.208633333333     0.708366666667     0.592      
C        C      0.630025000000     0.023966666667     0.723000000000     0.606      
C        C      0.667300000000     0.069533333333     0.740400000000    -0.824      
C        C      0.703875000000     0.065500000000     0.747933333333     0.698      
C        C      0.749800000000     0.074700000000     0.875033333333     0.59       
C        C      0.600725000000     0.117033333333     0.777000000000     0.603      
C        C      0.621850000000     0.149333333333     0.759600000000    -0.824      
C        C      0.613175000000     0.190566666667     0.752066666667     0.7        
C        C      0.524750000000     0.124700000000     0.958300000000     0.592      
C        C      0.718900000000     0.208533333333     0.750000000000    -0.784      
C        C      0.531100000000     0.124800000000     0.916666666667    -0.784      
O        O      0.616325000000     0.007066666667     0.924900000000    -0.557      
O        O      0.537175000000     0.297966666667     0.902400000000    -0.553      
O        O      0.524650000000     0.238800000000     0.927866666667    -0.62       
O        O      0.654000000000     0.314733333333     0.975933333333    -0.393      
O        O      0.537075000000     0.269866666667     0.813900000000    -0.517      
O        O      0.739375000000     0.289666666667     0.802633333333    -0.64       
O        O      0.686625000000     0.230200000000     0.908433333333    -0.554      
O        O      0.671675000000     0.147166666667     0.930933333333    -0.559      
O        O      0.608200000000     0.105000000000     0.905466666667    -0.632      
O        O      0.629100000000     0.229400000000     0.857400000000    -0.389      
O        O      0.716975000000     0.235533333333     0.686100000000    -0.507      
O        O      0.740275000000     0.183200000000     0.697366666667    -0.626      
O        O      0.633675000000     0.326266666667     0.741766666667    -0.557      
O        O      0.712825000000     0.035366666667     0.764266666667    -0.553      
O        O      0.725350000000     0.094533333333     0.738800000000    -0.62       
O        O      0.596000000000     0.018600000000     0.690733333333    -0.393      
O        O      0.712925000000     0.063466666667     0.852766666667    -0.517      
O        O      0.510625000000     0.043666666667     0.864033333333    -0.64       
O        O      0.563375000000     0.103133333333     0.758233333333    -0.554      
O        O      0.578325000000     0.186166666667     0.735733333333    -0.559      
O        O      0.641800000000     0.228333333333     0.761200000000    -0.632      
O        O      0.620900000000     0.103933333333     0.809266666667    -0.389      
O        O      0.533025000000     0.097800000000     0.980566666667    -0.507      
O        O      0.509725000000     0.150133333333     0.969300000000    -0.626      
Eu       Eu     0.563765000000     0.356116666667     0.206796666667     1.858      
Eu       Eu     0.736990000000     0.544890000000     0.293203333333     1.822      
Eu       Eu     0.686235000000     0.643883333333     0.126536666667     1.859      
Eu       Eu     0.513010000000     0.455110000000     0.040130000000     1.823      
H        H      0.590575000000     0.582766666667     0.284000000000     0.255      
H        H      0.574500000000     0.574033333333     0.227833333333     0.257      
H        H      0.723150000000     0.516900000000     0.094366666667     0.244      
H        H      0.599075000000     0.503433333333     0.216000000000     0.255      
H        H      0.634650000000     0.538166666667     0.272166666667     0.256      
H        H      0.691900000000     0.536500000000     0.072300000000     0.242      
H        H      0.659425000000     0.417233333333     0.049333333333     0.255      
H        H      0.675500000000     0.425966666667     0.105500000000     0.257      
H        H      0.526850000000     0.483100000000     0.238966666667     0.244      
H        H      0.650925000000     0.496566666667     0.117333333333     0.255      
H        H      0.615350000000     0.461833333333     0.061166666667     0.256      
H        H      0.558100000000     0.463500000000     0.261033333333     0.242      
C        C      0.619975000000     0.642700000000     0.277000000000     0.606      
C        C      0.582700000000     0.597133333333     0.259600000000    -0.824      
C        C      0.546125000000     0.601166666667     0.252066666667     0.698      
C        C      0.500200000000     0.591966666667     0.124966666667     0.59       
C        C      0.649275000000     0.549633333333     0.223000000000     0.603      
C        C      0.628150000000     0.517333333333     0.240400000000    -0.824      
C        C      0.636825000000     0.476100000000     0.247933333333     0.7        
C        C      0.725250000000     0.541966666667     0.041700000000     0.592      
C        C      0.630025000000     0.357300000000     0.056333333333     0.606      
C        C      0.667300000000     0.402866666667     0.073733333333    -0.824      
C        C      0.703875000000     0.398833333333     0.081266666667     0.698      
C        C      0.749800000000     0.408033333333     0.208366666667     0.59       
C        C      0.600725000000     0.450366666667     0.110333333333     0.603      
C        C      0.621850000000     0.482666666667     0.092933333333    -0.824      
C        C      0.613175000000     0.523900000000     0.085400000000     0.7        
C        C      0.524750000000     0.458033333333     0.291633333333     0.592      
C        C      0.718900000000     0.541866666667     0.083333333333    -0.784      
C        C      0.531100000000     0.458133333333     0.250000000000    -0.784      
O        O      0.616325000000     0.340400000000     0.258233333333    -0.557      
O        O      0.537175000000     0.631300000000     0.235733333333    -0.553      
O        O      0.524650000000     0.572133333333     0.261200000000    -0.62       
O        O      0.654000000000     0.648066666667     0.309266666667    -0.393      
O        O      0.537075000000     0.603200000000     0.147233333333    -0.517      
O        O      0.739375000000     0.623000000000     0.135966666667    -0.64       
O        O      0.686625000000     0.563533333333     0.241766666667    -0.554      
O        O      0.671675000000     0.480500000000     0.264266666667    -0.559      
O        O      0.608200000000     0.438333333333     0.238800000000    -0.632      
O        O      0.629100000000     0.562733333333     0.190733333333    -0.389      
O        O      0.716975000000     0.568866666667     0.019433333333    -0.507      
O        O      0.740275000000     0.516533333333     0.030700000000    -0.626      
O        O      0.633675000000     0.659600000000     0.075100000000    -0.557      
O        O      0.712825000000     0.368700000000     0.097600000000    -0.553      
O        O      0.725350000000     0.427866666667     0.072133333333    -0.62       
O        O      0.596000000000     0.351933333333     0.024066666667    -0.393      
O        O      0.712925000000     0.396800000000     0.186100000000    -0.517      
O        O      0.510625000000     0.377000000000     0.197366666667    -0.64       
O        O      0.563375000000     0.436466666667     0.091566666667    -0.554      
O        O      0.578325000000     0.519500000000     0.069066666667    -0.559      
O        O      0.641800000000     0.561666666667     0.094533333333    -0.632      
O        O      0.620900000000     0.437266666667     0.142600000000    -0.389      
O        O      0.533025000000     0.431133333333     0.313900000000    -0.507      
O        O      0.509725000000     0.483466666667     0.302633333333    -0.626      
Eu       Eu     0.563765000000     0.356116666667     0.540130000000     1.858      
Eu       Eu     0.736990000000     0.544890000000     0.626536666667     1.822      
Eu       Eu     0.686235000000     0.643883333333     0.459870000000     1.859      
Eu       Eu     0.513010000000     0.455110000000     0.373463333333     1.823      
H        H      0.590575000000     0.582766666667     0.617333333333     0.255      
H        H      0.574500000000     0.574033333333     0.561166666667     0.257      
H        H      0.723150000000     0.516900000000     0.427700000000     0.244      
H        H      0.599075000000     0.503433333333     0.549333333333     0.255      
H        H      0.634650000000     0.538166666667     0.605500000000     0.256      
H        H      0.691900000000     0.536500000000     0.405633333333     0.242      
H        H      0.659425000000     0.417233333333     0.382666666667     0.255      
H        H      0.675500000000     0.425966666667     0.438833333333     0.257      
H        H      0.526850000000     0.483100000000     0.572300000000     0.244      
H        H      0.650925000000     0.496566666667     0.450666666667     0.255      
H        H      0.615350000000     0.461833333333     0.394500000000     0.256      
H        H      0.558100000000     0.463500000000     0.594366666667     0.242      
C        C      0.619975000000     0.642700000000     0.610333333333     0.606      
C        C      0.582700000000     0.597133333333     0.592933333333    -0.824      
C        C      0.546125000000     0.601166666667     0.585400000000     0.698      
C        C      0.500200000000     0.591966666667     0.458300000000     0.59       
C        C      0.649275000000     0.549633333333     0.556333333333     0.603      
C        C      0.628150000000     0.517333333333     0.573733333333    -0.824      
C        C      0.636825000000     0.476100000000     0.581266666667     0.7        
C        C      0.725250000000     0.541966666667     0.375033333333     0.592      
C        C      0.630025000000     0.357300000000     0.389666666667     0.606      
C        C      0.667300000000     0.402866666667     0.407066666667    -0.824      
C        C      0.703875000000     0.398833333333     0.414600000000     0.698      
C        C      0.749800000000     0.408033333333     0.541700000000     0.59       
C        C      0.600725000000     0.450366666667     0.443666666667     0.603      
C        C      0.621850000000     0.482666666667     0.426266666667    -0.824      
C        C      0.613175000000     0.523900000000     0.418733333333     0.7        
C        C      0.524750000000     0.458033333333     0.624966666667     0.592      
C        C      0.718900000000     0.541866666667     0.416666666667    -0.784      
C        C      0.531100000000     0.458133333333     0.583333333333    -0.784      
O        O      0.616325000000     0.340400000000     0.591566666667    -0.557      
O        O      0.537175000000     0.631300000000     0.569066666667    -0.553      
O        O      0.524650000000     0.572133333333     0.594533333333    -0.62       
O        O      0.654000000000     0.648066666667     0.642600000000    -0.393      
O        O      0.537075000000     0.603200000000     0.480566666667    -0.517      
O        O      0.739375000000     0.623000000000     0.469300000000    -0.64       
O        O      0.686625000000     0.563533333333     0.575100000000    -0.554      
O        O      0.671675000000     0.480500000000     0.597600000000    -0.559      
O        O      0.608200000000     0.438333333333     0.572133333333    -0.632      
O        O      0.629100000000     0.562733333333     0.524066666667    -0.389      
O        O      0.716975000000     0.568866666667     0.352766666667    -0.507      
O        O      0.740275000000     0.516533333333     0.364033333333    -0.626      
O        O      0.633675000000     0.659600000000     0.408433333333    -0.557      
O        O      0.712825000000     0.368700000000     0.430933333333    -0.553      
O        O      0.725350000000     0.427866666667     0.405466666667    -0.62       
O        O      0.596000000000     0.351933333333     0.357400000000    -0.393      
O        O      0.712925000000     0.396800000000     0.519433333333    -0.517      
O        O      0.510625000000     0.377000000000     0.530700000000    -0.64       
O        O      0.563375000000     0.436466666667     0.424900000000    -0.554      
O        O      0.578325000000     0.519500000000     0.402400000000    -0.559      
O        O      0.641800000000     0.561666666667     0.427866666667    -0.632      
O        O      0.620900000000     0.437266666667     0.475933333333    -0.389      
O        O      0.533025000000     0.431133333333     0.647233333333    -0.507      
O        O      0.509725000000     0.483466666667     0.635966666667    -0.626      
Eu       Eu     0.563765000000     0.356116666667     0.873463333333     1.858      
Eu       Eu     0.736990000000     0.544890000000     0.959870000000     1.822      
Eu       Eu     0.686235000000     0.643883333333     0.793203333333     1.859      
Eu       Eu     0.513010000000     0.455110000000     0.706796666667     1.823      
H        H      0.590575000000     0.582766666667     0.950666666667     0.255      
H        H      0.574500000000     0.574033333333     0.894500000000     0.257      
H        H      0.723150000000     0.516900000000     0.761033333333     0.244      
H        H      0.599075000000     0.503433333333     0.882666666667     0.255      
H        H      0.634650000000     0.538166666667     0.938833333333     0.256      
H        H      0.691900000000     0.536500000000     0.738966666667     0.242      
H        H      0.659425000000     0.417233333333     0.716000000000     0.255      
H        H      0.675500000000     0.425966666667     0.772166666667     0.257      
H        H      0.526850000000     0.483100000000     0.905633333333     0.244      
H        H      0.650925000000     0.496566666667     0.784000000000     0.255      
H        H      0.615350000000     0.461833333333     0.727833333333     0.256      
H        H      0.558100000000     0.463500000000     0.927700000000     0.242      
C        C      0.619975000000     0.642700000000     0.943666666667     0.606      
C        C      0.582700000000     0.597133333333     0.926266666667    -0.824      
C        C      0.546125000000     0.601166666667     0.918733333333     0.698      
C        C      0.500200000000     0.591966666667     0.791633333333     0.59       
C        C      0.649275000000     0.549633333333     0.889666666667     0.603      
C        C      0.628150000000     0.517333333333     0.907066666667    -0.824      
C        C      0.636825000000     0.476100000000     0.914600000000     0.7        
C        C      0.725250000000     0.541966666667     0.708366666667     0.592      
C        C      0.630025000000     0.357300000000     0.723000000000     0.606      
C        C      0.667300000000     0.402866666667     0.740400000000    -0.824      
C        C      0.703875000000     0.398833333333     0.747933333333     0.698      
C        C      0.749800000000     0.408033333333     0.875033333333     0.59       
C        C      0.600725000000     0.450366666667     0.777000000000     0.603      
C        C      0.621850000000     0.482666666667     0.759600000000    -0.824      
C        C      0.613175000000     0.523900000000     0.752066666667     0.7        
C        C      0.524750000000     0.458033333333     0.958300000000     0.592      
C        C      0.718900000000     0.541866666667     0.750000000000    -0.784      
C        C      0.531100000000     0.458133333333     0.916666666667    -0.784      
O        O      0.616325000000     0.340400000000     0.924900000000    -0.557      
O        O      0.537175000000     0.631300000000     0.902400000000    -0.553      
O        O      0.524650000000     0.572133333333     0.927866666667    -0.62       
O        O      0.654000000000     0.648066666667     0.975933333333    -0.393      
O        O      0.537075000000     0.603200000000     0.813900000000    -0.517      
O        O      0.739375000000     0.623000000000     0.802633333333    -0.64       
O        O      0.686625000000     0.563533333333     0.908433333333    -0.554      
O        O      0.671675000000     0.480500000000     0.930933333333    -0.559      
O        O      0.608200000000     0.438333333333     0.905466666667    -0.632      
O        O      0.629100000000     0.562733333333     0.857400000000    -0.389      
O        O      0.716975000000     0.568866666667     0.686100000000    -0.507      
O        O      0.740275000000     0.516533333333     0.697366666667    -0.626      
O        O      0.633675000000     0.659600000000     0.741766666667    -0.557      
O        O      0.712825000000     0.368700000000     0.764266666667    -0.553      
O        O      0.725350000000     0.427866666667     0.738800000000    -0.62       
O        O      0.596000000000     0.351933333333     0.690733333333    -0.393      
O        O      0.712925000000     0.396800000000     0.852766666667    -0.517      
O        O      0.510625000000     0.377000000000     0.864033333333    -0.64       
O        O      0.563375000000     0.436466666667     0.758233333333    -0.554      
O        O      0.578325000000     0.519500000000     0.735733333333    -0.559      
O        O      0.641800000000     0.561666666667     0.761200000000    -0.632      
O        O      0.620900000000     0.437266666667     0.809266666667    -0.389      
O        O      0.533025000000     0.431133333333     0.980566666667    -0.507      
O        O      0.509725000000     0.483466666667     0.969300000000    -0.626      
Eu       Eu     0.563765000000     0.689450000000     0.206796666667     1.858      
Eu       Eu     0.736990000000     0.878223333333     0.293203333333     1.822      
Eu       Eu     0.686235000000     0.977216666667     0.126536666667     1.859      
Eu       Eu     0.513010000000     0.788443333333     0.040130000000     1.823      
H        H      0.590575000000     0.916100000000     0.284000000000     0.255      
H        H      0.574500000000     0.907366666667     0.227833333333     0.257      
H        H      0.723150000000     0.850233333333     0.094366666667     0.244      
H        H      0.599075000000     0.836766666667     0.216000000000     0.255      
H        H      0.634650000000     0.871500000000     0.272166666667     0.256      
H        H      0.691900000000     0.869833333333     0.072300000000     0.242      
H        H      0.659425000000     0.750566666667     0.049333333333     0.255      
H        H      0.675500000000     0.759300000000     0.105500000000     0.257      
H        H      0.526850000000     0.816433333333     0.238966666667     0.244      
H        H      0.650925000000     0.829900000000     0.117333333333     0.255      
H        H      0.615350000000     0.795166666667     0.061166666667     0.256      
H        H      0.558100000000     0.796833333333     0.261033333333     0.242      
C        C      0.619975000000     0.976033333333     0.277000000000     0.606      
C        C      0.582700000000     0.930466666667     0.259600000000    -0.824      
C        C      0.546125000000     0.934500000000     0.252066666667     0.698      
C        C      0.500200000000     0.925300000000     0.124966666667     0.59       
C        C      0.649275000000     0.882966666667     0.223000000000     0.603      
C        C      0.628150000000     0.850666666667     0.240400000000    -0.824      
C        C      0.636825000000     0.809433333333     0.247933333333     0.7        
C        C      0.725250000000     0.875300000000     0.041700000000     0.592      
C        C      0.630025000000     0.690633333333     0.056333333333     0.606      
C        C      0.667300000000     0.736200000000     0.073733333333    -0.824      
C        C      0.703875000000     0.732166666667     0.081266666667     0.698      
C        C      0.749800000000     0.741366666667     0.208366666667     0.59       
C        C      0.600725000000     0.783700000000     0.110333333333     0.603      
C        C      0.621850000000     0.816000000000     0.092933333333    -0.824      
C        C      0.613175000000     0.857233333333     0.085400000000     0.7        
C        C      0.524750000000     0.791366666667     0.291633333333     0.592      
C        C      0.718900000000     0.875200000000     0.083333333333    -0.784      
C        C      0.531100000000     0.791466666667     0.250000000000    -0.784      
O        O      0.616325000000     0.673733333333     0.258233333333    -0.557      
O        O      0.537175000000     0.964633333333     0.235733333333    -0.553      
O        O      0.524650000000     0.905466666667     0.261200000000    -0.62       
O        O      0.654000000000     0.981400000000     0.309266666667    -0.393      
O        O      0.537075000000     0.936533333333     0.147233333333    -0.517      
O        O      0.739375000000     0.956333333333     0.135966666667    -0.64       
O        O      0.686625000000     0.896866666667     0.241766666667    -0.554      
O        O      0.671675000000     0.813833333333     0.264266666667    -0.559      
O        O      0.608200000000     0.771666666667     0.238800000000    -0.632      
O        O      0.629100000000     0.896066666667     0.190733333333    -0.389      
O        O      0.716975000000     0.902200000000     0.019433333333    -0.507      
O        O      0.740275000000     0.849866666667     0.030700000000    -0.626      
O        O      0.633675000000     0.992933333333     0.075100000000    -0.557      
O        O      0.712825000000     0.702033333333     0.097600000000    -0.553      
O        O      0.725350000000     0.761200000000     0.072133333333    -0.62       
O        O      0.596000000000     0.685266666667     0.024066666667    -0.393      
O        O      0.712925000000     0.730133333333     0.186100000000    -0.517      
O        O      0.510625000000     0.710333333333     0.197366666667    -0.64       
O        O      0.563375000000     0.769800000000     0.091566666667    -0.554      
O        O      0.578325000000     0.852833333333     0.069066666667    -0.559      
O        O      0.641800000000     0.895000000000     0.094533333333    -0.632      
O        O      0.620900000000     0.770600000000     0.142600000000    -0.389      
O        O      0.533025000000     0.764466666667     0.313900000000    -0.507      
O        O      0.509725000000     0.816800000000     0.302633333333    -0.626      
Eu       Eu     0.563765000000     0.689450000000     0.540130000000     1.858      
Eu       Eu     0.736990000000     0.878223333333     0.626536666667     1.822      
Eu       Eu     0.686235000000     0.977216666667     0.459870000000     1.859      
Eu       Eu     0.513010000000     0.788443333333     0.373463333333     1.823      
H        H      0.590575000000     0.916100000000     0.617333333333     0.255      
H        H      0.574500000000     0.907366666667     0.561166666667     0.257      
H        H      0.723150000000     0.850233333333     0.427700000000     0.244      
H        H      0.599075000000     0.836766666667     0.549333333333     0.255      
H        H      0.634650000000     0.871500000000     0.605500000000     0.256      
H        H      0.691900000000     0.869833333333     0.405633333333     0.242      
H        H      0.659425000000     0.750566666667     0.382666666667     0.255      
H        H      0.675500000000     0.759300000000     0.438833333333     0.257      
H        H      0.526850000000     0.816433333333     0.572300000000     0.244      
H        H      0.650925000000     0.829900000000     0.450666666667     0.255      
H        H      0.615350000000     0.795166666667     0.394500000000     0.256      
H        H      0.558100000000     0.796833333333     0.594366666667     0.242      
C        C      0.619975000000     0.976033333333     0.610333333333     0.606      
C        C      0.582700000000     0.930466666667     0.592933333333    -0.824      
C        C      0.546125000000     0.934500000000     0.585400000000     0.698      
C        C      0.500200000000     0.925300000000     0.458300000000     0.59       
C        C      0.649275000000     0.882966666667     0.556333333333     0.603      
C        C      0.628150000000     0.850666666667     0.573733333333    -0.824      
C        C      0.636825000000     0.809433333333     0.581266666667     0.7        
C        C      0.725250000000     0.875300000000     0.375033333333     0.592      
C        C      0.630025000000     0.690633333333     0.389666666667     0.606      
C        C      0.667300000000     0.736200000000     0.407066666667    -0.824      
C        C      0.703875000000     0.732166666667     0.414600000000     0.698      
C        C      0.749800000000     0.741366666667     0.541700000000     0.59       
C        C      0.600725000000     0.783700000000     0.443666666667     0.603      
C        C      0.621850000000     0.816000000000     0.426266666667    -0.824      
C        C      0.613175000000     0.857233333333     0.418733333333     0.7        
C        C      0.524750000000     0.791366666667     0.624966666667     0.592      
C        C      0.718900000000     0.875200000000     0.416666666667    -0.784      
C        C      0.531100000000     0.791466666667     0.583333333333    -0.784      
O        O      0.616325000000     0.673733333333     0.591566666667    -0.557      
O        O      0.537175000000     0.964633333333     0.569066666667    -0.553      
O        O      0.524650000000     0.905466666667     0.594533333333    -0.62       
O        O      0.654000000000     0.981400000000     0.642600000000    -0.393      
O        O      0.537075000000     0.936533333333     0.480566666667    -0.517      
O        O      0.739375000000     0.956333333333     0.469300000000    -0.64       
O        O      0.686625000000     0.896866666667     0.575100000000    -0.554      
O        O      0.671675000000     0.813833333333     0.597600000000    -0.559      
O        O      0.608200000000     0.771666666667     0.572133333333    -0.632      
O        O      0.629100000000     0.896066666667     0.524066666667    -0.389      
O        O      0.716975000000     0.902200000000     0.352766666667    -0.507      
O        O      0.740275000000     0.849866666667     0.364033333333    -0.626      
O        O      0.633675000000     0.992933333333     0.408433333333    -0.557      
O        O      0.712825000000     0.702033333333     0.430933333333    -0.553      
O        O      0.725350000000     0.761200000000     0.405466666667    -0.62       
O        O      0.596000000000     0.685266666667     0.357400000000    -0.393      
O        O      0.712925000000     0.730133333333     0.519433333333    -0.517      
O        O      0.510625000000     0.710333333333     0.530700000000    -0.64       
O        O      0.563375000000     0.769800000000     0.424900000000    -0.554      
O        O      0.578325000000     0.852833333333     0.402400000000    -0.559      
O        O      0.641800000000     0.895000000000     0.427866666667    -0.632      
O        O      0.620900000000     0.770600000000     0.475933333333    -0.389      
O        O      0.533025000000     0.764466666667     0.647233333333    -0.507      
O        O      0.509725000000     0.816800000000     0.635966666667    -0.626      
Eu       Eu     0.563765000000     0.689450000000     0.873463333333     1.858      
Eu       Eu     0.736990000000     0.878223333333     0.959870000000     1.822      
Eu       Eu     0.686235000000     0.977216666667     0.793203333333     1.859      
Eu       Eu     0.513010000000     0.788443333333     0.706796666667     1.823      
H        H      0.590575000000     0.916100000000     0.950666666667     0.255      
H        H      0.574500000000     0.907366666667     0.894500000000     0.257      
H        H      0.723150000000     0.850233333333     0.761033333333     0.244      
H        H      0.599075000000     0.836766666667     0.882666666667     0.255      
H        H      0.634650000000     0.871500000000     0.938833333333     0.256      
H        H      0.691900000000     0.869833333333     0.738966666667     0.242      
H        H      0.659425000000     0.750566666667     0.716000000000     0.255      
H        H      0.675500000000     0.759300000000     0.772166666667     0.257      
H        H      0.526850000000     0.816433333333     0.905633333333     0.244      
H        H      0.650925000000     0.829900000000     0.784000000000     0.255      
H        H      0.615350000000     0.795166666667     0.727833333333     0.256      
H        H      0.558100000000     0.796833333333     0.927700000000     0.242      
C        C      0.619975000000     0.976033333333     0.943666666667     0.606      
C        C      0.582700000000     0.930466666667     0.926266666667    -0.824      
C        C      0.546125000000     0.934500000000     0.918733333333     0.698      
C        C      0.500200000000     0.925300000000     0.791633333333     0.59       
C        C      0.649275000000     0.882966666667     0.889666666667     0.603      
C        C      0.628150000000     0.850666666667     0.907066666667    -0.824      
C        C      0.636825000000     0.809433333333     0.914600000000     0.7        
C        C      0.725250000000     0.875300000000     0.708366666667     0.592      
C        C      0.630025000000     0.690633333333     0.723000000000     0.606      
C        C      0.667300000000     0.736200000000     0.740400000000    -0.824      
C        C      0.703875000000     0.732166666667     0.747933333333     0.698      
C        C      0.749800000000     0.741366666667     0.875033333333     0.59       
C        C      0.600725000000     0.783700000000     0.777000000000     0.603      
C        C      0.621850000000     0.816000000000     0.759600000000    -0.824      
C        C      0.613175000000     0.857233333333     0.752066666667     0.7        
C        C      0.524750000000     0.791366666667     0.958300000000     0.592      
C        C      0.718900000000     0.875200000000     0.750000000000    -0.784      
C        C      0.531100000000     0.791466666667     0.916666666667    -0.784      
O        O      0.616325000000     0.673733333333     0.924900000000    -0.557      
O        O      0.537175000000     0.964633333333     0.902400000000    -0.553      
O        O      0.524650000000     0.905466666667     0.927866666667    -0.62       
O        O      0.654000000000     0.981400000000     0.975933333333    -0.393      
O        O      0.537075000000     0.936533333333     0.813900000000    -0.517      
O        O      0.739375000000     0.956333333333     0.802633333333    -0.64       
O        O      0.686625000000     0.896866666667     0.908433333333    -0.554      
O        O      0.671675000000     0.813833333333     0.930933333333    -0.559      
O        O      0.608200000000     0.771666666667     0.905466666667    -0.632      
O        O      0.629100000000     0.896066666667     0.857400000000    -0.389      
O        O      0.716975000000     0.902200000000     0.686100000000    -0.507      
O        O      0.740275000000     0.849866666667     0.697366666667    -0.626      
O        O      0.633675000000     0.992933333333     0.741766666667    -0.557      
O        O      0.712825000000     0.702033333333     0.764266666667    -0.553      
O        O      0.725350000000     0.761200000000     0.738800000000    -0.62       
O        O      0.596000000000     0.685266666667     0.690733333333    -0.393      
O        O      0.712925000000     0.730133333333     0.852766666667    -0.517      
O        O      0.510625000000     0.710333333333     0.864033333333    -0.64       
O        O      0.563375000000     0.769800000000     0.758233333333    -0.554      
O        O      0.578325000000     0.852833333333     0.735733333333    -0.559      
O        O      0.641800000000     0.895000000000     0.761200000000    -0.632      
O        O      0.620900000000     0.770600000000     0.809266666667    -0.389      
O        O      0.533025000000     0.764466666667     0.980566666667    -0.507      
O        O      0.509725000000     0.816800000000     0.969300000000    -0.626      
Eu       Eu     0.813765000000     0.022783333333     0.206796666667     1.858      
Eu       Eu     0.986990000000     0.211556666667     0.293203333333     1.822      
Eu       Eu     0.936235000000     0.310550000000     0.126536666667     1.859      
Eu       Eu     0.763010000000     0.121776666667     0.040130000000     1.823      
H        H      0.840575000000     0.249433333333     0.284000000000     0.255      
H        H      0.824500000000     0.240700000000     0.227833333333     0.257      
H        H      0.973150000000     0.183566666667     0.094366666667     0.244      
H        H      0.849075000000     0.170100000000     0.216000000000     0.255      
H        H      0.884650000000     0.204833333333     0.272166666667     0.256      
H        H      0.941900000000     0.203166666667     0.072300000000     0.242      
H        H      0.909425000000     0.083900000000     0.049333333333     0.255      
H        H      0.925500000000     0.092633333333     0.105500000000     0.257      
H        H      0.776850000000     0.149766666667     0.238966666667     0.244      
H        H      0.900925000000     0.163233333333     0.117333333333     0.255      
H        H      0.865350000000     0.128500000000     0.061166666667     0.256      
H        H      0.808100000000     0.130166666667     0.261033333333     0.242      
C        C      0.869975000000     0.309366666667     0.277000000000     0.606      
C        C      0.832700000000     0.263800000000     0.259600000000    -0.824      
C        C      0.796125000000     0.267833333333     0.252066666667     0.698      
C        C      0.750200000000     0.258633333333     0.124966666667     0.59       
C        C      0.899275000000     0.216300000000     0.223000000000     0.603      
C        C      0.878150000000     0.184000000000     0.240400000000    -0.824      
C        C      0.886825000000     0.142766666667     0.247933333333     0.7        
C        C      0.975250000000     0.208633333333     0.041700000000     0.592      
C        C      0.880025000000     0.023966666667     0.056333333333     0.606      
C        C      0.917300000000     0.069533333333     0.073733333333    -0.824      
C        C      0.953875000000     0.065500000000     0.081266666667     0.698      
C        C      0.999800000000     0.074700000000     0.208366666667     0.59       
C        C      0.850725000000     0.117033333333     0.110333333333     0.603      
C        C      0.871850000000     0.149333333333     0.092933333333    -0.824      
C        C      0.863175000000     0.190566666667     0.085400000000     0.7        
C        C      0.774750000000     0.124700000000     0.291633333333     0.592      
C        C      0.968900000000     0.208533333333     0.083333333333    -0.784      
C        C      0.781100000000     0.124800000000     0.250000000000    -0.784      
O        O      0.866325000000     0.007066666667     0.258233333333    -0.557      
O        O      0.787175000000     0.297966666667     0.235733333333    -0.553      
O        O      0.774650000000     0.238800000000     0.261200000000    -0.62       
O        O      0.904000000000     0.314733333333     0.309266666667    -0.393      
O        O      0.787075000000     0.269866666667     0.147233333333    -0.517      
O        O      0.989375000000     0.289666666667     0.135966666667    -0.64       
O        O      0.936625000000     0.230200000000     0.241766666667    -0.554      
O        O      0.921675000000     0.147166666667     0.264266666667    -0.559      
O        O      0.858200000000     0.105000000000     0.238800000000    -0.632      
O        O      0.879100000000     0.229400000000     0.190733333333    -0.389      
O        O      0.966975000000     0.235533333333     0.019433333333    -0.507      
O        O      0.990275000000     0.183200000000     0.030700000000    -0.626      
O        O      0.883675000000     0.326266666667     0.075100000000    -0.557      
O        O      0.962825000000     0.035366666667     0.097600000000    -0.553      
O        O      0.975350000000     0.094533333333     0.072133333333    -0.62       
O        O      0.846000000000     0.018600000000     0.024066666667    -0.393      
O        O      0.962925000000     0.063466666667     0.186100000000    -0.517      
O        O      0.760625000000     0.043666666667     0.197366666667    -0.64       
O        O      0.813375000000     0.103133333333     0.091566666667    -0.554      
O        O      0.828325000000     0.186166666667     0.069066666667    -0.559      
O        O      0.891800000000     0.228333333333     0.094533333333    -0.632      
O        O      0.870900000000     0.103933333333     0.142600000000    -0.389      
O        O      0.783025000000     0.097800000000     0.313900000000    -0.507      
O        O      0.759725000000     0.150133333333     0.302633333333    -0.626      
Eu       Eu     0.813765000000     0.022783333333     0.540130000000     1.858      
Eu       Eu     0.986990000000     0.211556666667     0.626536666667     1.822      
Eu       Eu     0.936235000000     0.310550000000     0.459870000000     1.859      
Eu       Eu     0.763010000000     0.121776666667     0.373463333333     1.823      
H        H      0.840575000000     0.249433333333     0.617333333333     0.255      
H        H      0.824500000000     0.240700000000     0.561166666667     0.257      
H        H      0.973150000000     0.183566666667     0.427700000000     0.244      
H        H      0.849075000000     0.170100000000     0.549333333333     0.255      
H        H      0.884650000000     0.204833333333     0.605500000000     0.256      
H        H      0.941900000000     0.203166666667     0.405633333333     0.242      
H        H      0.909425000000     0.083900000000     0.382666666667     0.255      
H        H      0.925500000000     0.092633333333     0.438833333333     0.257      
H        H      0.776850000000     0.149766666667     0.572300000000     0.244      
H        H      0.900925000000     0.163233333333     0.450666666667     0.255      
H        H      0.865350000000     0.128500000000     0.394500000000     0.256      
H        H      0.808100000000     0.130166666667     0.594366666667     0.242      
C        C      0.869975000000     0.309366666667     0.610333333333     0.606      
C        C      0.832700000000     0.263800000000     0.592933333333    -0.824      
C        C      0.796125000000     0.267833333333     0.585400000000     0.698      
C        C      0.750200000000     0.258633333333     0.458300000000     0.59       
C        C      0.899275000000     0.216300000000     0.556333333333     0.603      
C        C      0.878150000000     0.184000000000     0.573733333333    -0.824      
C        C      0.886825000000     0.142766666667     0.581266666667     0.7        
C        C      0.975250000000     0.208633333333     0.375033333333     0.592      
C        C      0.880025000000     0.023966666667     0.389666666667     0.606      
C        C      0.917300000000     0.069533333333     0.407066666667    -0.824      
C        C      0.953875000000     0.065500000000     0.414600000000     0.698      
C        C      0.999800000000     0.074700000000     0.541700000000     0.59       
C        C      0.850725000000     0.117033333333     0.443666666667     0.603      
C        C      0.871850000000     0.149333333333     0.426266666667    -0.824      
C        C      0.863175000000     0.190566666667     0.418733333333     0.7        
C        C      0.774750000000     0.124700000000     0.624966666667     0.592      
C        C      0.968900000000     0.208533333333     0.416666666667    -0.784      
C        C      0.781100000000     0.124800000000     0.583333333333    -0.784      
O        O      0.866325000000     0.007066666667     0.591566666667    -0.557      
O        O      0.787175000000     0.297966666667     0.569066666667    -0.553      
O        O      0.774650000000     0.238800000000     0.594533333333    -0.62       
O        O      0.904000000000     0.314733333333     0.642600000000    -0.393      
O        O      0.787075000000     0.269866666667     0.480566666667    -0.517      
O        O      0.989375000000     0.289666666667     0.469300000000    -0.64       
O        O      0.936625000000     0.230200000000     0.575100000000    -0.554      
O        O      0.921675000000     0.147166666667     0.597600000000    -0.559      
O        O      0.858200000000     0.105000000000     0.572133333333    -0.632      
O        O      0.879100000000     0.229400000000     0.524066666667    -0.389      
O        O      0.966975000000     0.235533333333     0.352766666667    -0.507      
O        O      0.990275000000     0.183200000000     0.364033333333    -0.626      
O        O      0.883675000000     0.326266666667     0.408433333333    -0.557      
O        O      0.962825000000     0.035366666667     0.430933333333    -0.553      
O        O      0.975350000000     0.094533333333     0.405466666667    -0.62       
O        O      0.846000000000     0.018600000000     0.357400000000    -0.393      
O        O      0.962925000000     0.063466666667     0.519433333333    -0.517      
O        O      0.760625000000     0.043666666667     0.530700000000    -0.64       
O        O      0.813375000000     0.103133333333     0.424900000000    -0.554      
O        O      0.828325000000     0.186166666667     0.402400000000    -0.559      
O        O      0.891800000000     0.228333333333     0.427866666667    -0.632      
O        O      0.870900000000     0.103933333333     0.475933333333    -0.389      
O        O      0.783025000000     0.097800000000     0.647233333333    -0.507      
O        O      0.759725000000     0.150133333333     0.635966666667    -0.626      
Eu       Eu     0.813765000000     0.022783333333     0.873463333333     1.858      
Eu       Eu     0.986990000000     0.211556666667     0.959870000000     1.822      
Eu       Eu     0.936235000000     0.310550000000     0.793203333333     1.859      
Eu       Eu     0.763010000000     0.121776666667     0.706796666667     1.823      
H        H      0.840575000000     0.249433333333     0.950666666667     0.255      
H        H      0.824500000000     0.240700000000     0.894500000000     0.257      
H        H      0.973150000000     0.183566666667     0.761033333333     0.244      
H        H      0.849075000000     0.170100000000     0.882666666667     0.255      
H        H      0.884650000000     0.204833333333     0.938833333333     0.256      
H        H      0.941900000000     0.203166666667     0.738966666667     0.242      
H        H      0.909425000000     0.083900000000     0.716000000000     0.255      
H        H      0.925500000000     0.092633333333     0.772166666667     0.257      
H        H      0.776850000000     0.149766666667     0.905633333333     0.244      
H        H      0.900925000000     0.163233333333     0.784000000000     0.255      
H        H      0.865350000000     0.128500000000     0.727833333333     0.256      
H        H      0.808100000000     0.130166666667     0.927700000000     0.242      
C        C      0.869975000000     0.309366666667     0.943666666667     0.606      
C        C      0.832700000000     0.263800000000     0.926266666667    -0.824      
C        C      0.796125000000     0.267833333333     0.918733333333     0.698      
C        C      0.750200000000     0.258633333333     0.791633333333     0.59       
C        C      0.899275000000     0.216300000000     0.889666666667     0.603      
C        C      0.878150000000     0.184000000000     0.907066666667    -0.824      
C        C      0.886825000000     0.142766666667     0.914600000000     0.7        
C        C      0.975250000000     0.208633333333     0.708366666667     0.592      
C        C      0.880025000000     0.023966666667     0.723000000000     0.606      
C        C      0.917300000000     0.069533333333     0.740400000000    -0.824      
C        C      0.953875000000     0.065500000000     0.747933333333     0.698      
C        C      0.999800000000     0.074700000000     0.875033333333     0.59       
C        C      0.850725000000     0.117033333333     0.777000000000     0.603      
C        C      0.871850000000     0.149333333333     0.759600000000    -0.824      
C        C      0.863175000000     0.190566666667     0.752066666667     0.7        
C        C      0.774750000000     0.124700000000     0.958300000000     0.592      
C        C      0.968900000000     0.208533333333     0.750000000000    -0.784      
C        C      0.781100000000     0.124800000000     0.916666666667    -0.784      
O        O      0.866325000000     0.007066666667     0.924900000000    -0.557      
O        O      0.787175000000     0.297966666667     0.902400000000    -0.553      
O        O      0.774650000000     0.238800000000     0.927866666667    -0.62       
O        O      0.904000000000     0.314733333333     0.975933333333    -0.393      
O        O      0.787075000000     0.269866666667     0.813900000000    -0.517      
O        O      0.989375000000     0.289666666667     0.802633333333    -0.64       
O        O      0.936625000000     0.230200000000     0.908433333333    -0.554      
O        O      0.921675000000     0.147166666667     0.930933333333    -0.559      
O        O      0.858200000000     0.105000000000     0.905466666667    -0.632      
O        O      0.879100000000     0.229400000000     0.857400000000    -0.389      
O        O      0.966975000000     0.235533333333     0.686100000000    -0.507      
O        O      0.990275000000     0.183200000000     0.697366666667    -0.626      
O        O      0.883675000000     0.326266666667     0.741766666667    -0.557      
O        O      0.962825000000     0.035366666667     0.764266666667    -0.553      
O        O      0.975350000000     0.094533333333     0.738800000000    -0.62       
O        O      0.846000000000     0.018600000000     0.690733333333    -0.393      
O        O      0.962925000000     0.063466666667     0.852766666667    -0.517      
O        O      0.760625000000     0.043666666667     0.864033333333    -0.64       
O        O      0.813375000000     0.103133333333     0.758233333333    -0.554      
O        O      0.828325000000     0.186166666667     0.735733333333    -0.559      
O        O      0.891800000000     0.228333333333     0.761200000000    -0.632      
O        O      0.870900000000     0.103933333333     0.809266666667    -0.389      
O        O      0.783025000000     0.097800000000     0.980566666667    -0.507      
O        O      0.759725000000     0.150133333333     0.969300000000    -0.626      
Eu       Eu     0.813765000000     0.356116666667     0.206796666667     1.858      
Eu       Eu     0.986990000000     0.544890000000     0.293203333333     1.822      
Eu       Eu     0.936235000000     0.643883333333     0.126536666667     1.859      
Eu       Eu     0.763010000000     0.455110000000     0.040130000000     1.823      
H        H      0.840575000000     0.582766666667     0.284000000000     0.255      
H        H      0.824500000000     0.574033333333     0.227833333333     0.257      
H        H      0.973150000000     0.516900000000     0.094366666667     0.244      
H        H      0.849075000000     0.503433333333     0.216000000000     0.255      
H        H      0.884650000000     0.538166666667     0.272166666667     0.256      
H        H      0.941900000000     0.536500000000     0.072300000000     0.242      
H        H      0.909425000000     0.417233333333     0.049333333333     0.255      
H        H      0.925500000000     0.425966666667     0.105500000000     0.257      
H        H      0.776850000000     0.483100000000     0.238966666667     0.244      
H        H      0.900925000000     0.496566666667     0.117333333333     0.255      
H        H      0.865350000000     0.461833333333     0.061166666667     0.256      
H        H      0.808100000000     0.463500000000     0.261033333333     0.242      
C        C      0.869975000000     0.642700000000     0.277000000000     0.606      
C        C      0.832700000000     0.597133333333     0.259600000000    -0.824      
C        C      0.796125000000     0.601166666667     0.252066666667     0.698      
C        C      0.750200000000     0.591966666667     0.124966666667     0.59       
C        C      0.899275000000     0.549633333333     0.223000000000     0.603      
C        C      0.878150000000     0.517333333333     0.240400000000    -0.824      
C        C      0.886825000000     0.476100000000     0.247933333333     0.7        
C        C      0.975250000000     0.541966666667     0.041700000000     0.592      
C        C      0.880025000000     0.357300000000     0.056333333333     0.606      
C        C      0.917300000000     0.402866666667     0.073733333333    -0.824      
C        C      0.953875000000     0.398833333333     0.081266666667     0.698      
C        C      0.999800000000     0.408033333333     0.208366666667     0.59       
C        C      0.850725000000     0.450366666667     0.110333333333     0.603      
C        C      0.871850000000     0.482666666667     0.092933333333    -0.824      
C        C      0.863175000000     0.523900000000     0.085400000000     0.7        
C        C      0.774750000000     0.458033333333     0.291633333333     0.592      
C        C      0.968900000000     0.541866666667     0.083333333333    -0.784      
C        C      0.781100000000     0.458133333333     0.250000000000    -0.784      
O        O      0.866325000000     0.340400000000     0.258233333333    -0.557      
O        O      0.787175000000     0.631300000000     0.235733333333    -0.553      
O        O      0.774650000000     0.572133333333     0.261200000000    -0.62       
O        O      0.904000000000     0.648066666667     0.309266666667    -0.393      
O        O      0.787075000000     0.603200000000     0.147233333333    -0.517      
O        O      0.989375000000     0.623000000000     0.135966666667    -0.64       
O        O      0.936625000000     0.563533333333     0.241766666667    -0.554      
O        O      0.921675000000     0.480500000000     0.264266666667    -0.559      
O        O      0.858200000000     0.438333333333     0.238800000000    -0.632      
O        O      0.879100000000     0.562733333333     0.190733333333    -0.389      
O        O      0.966975000000     0.568866666667     0.019433333333    -0.507      
O        O      0.990275000000     0.516533333333     0.030700000000    -0.626      
O        O      0.883675000000     0.659600000000     0.075100000000    -0.557      
O        O      0.962825000000     0.368700000000     0.097600000000    -0.553      
O        O      0.975350000000     0.427866666667     0.072133333333    -0.62       
O        O      0.846000000000     0.351933333333     0.024066666667    -0.393      
O        O      0.962925000000     0.396800000000     0.186100000000    -0.517      
O        O      0.760625000000     0.377000000000     0.197366666667    -0.64       
O        O      0.813375000000     0.436466666667     0.091566666667    -0.554      
O        O      0.828325000000     0.519500000000     0.069066666667    -0.559      
O        O      0.891800000000     0.561666666667     0.094533333333    -0.632      
O        O      0.870900000000     0.437266666667     0.142600000000    -0.389      
O        O      0.783025000000     0.431133333333     0.313900000000    -0.507      
O        O      0.759725000000     0.483466666667     0.302633333333    -0.626      
Eu       Eu     0.813765000000     0.356116666667     0.540130000000     1.858      
Eu       Eu     0.986990000000     0.544890000000     0.626536666667     1.822      
Eu       Eu     0.936235000000     0.643883333333     0.459870000000     1.859      
Eu       Eu     0.763010000000     0.455110000000     0.373463333333     1.823      
H        H      0.840575000000     0.582766666667     0.617333333333     0.255      
H        H      0.824500000000     0.574033333333     0.561166666667     0.257      
H        H      0.973150000000     0.516900000000     0.427700000000     0.244      
H        H      0.849075000000     0.503433333333     0.549333333333     0.255      
H        H      0.884650000000     0.538166666667     0.605500000000     0.256      
H        H      0.941900000000     0.536500000000     0.405633333333     0.242      
H        H      0.909425000000     0.417233333333     0.382666666667     0.255      
H        H      0.925500000000     0.425966666667     0.438833333333     0.257      
H        H      0.776850000000     0.483100000000     0.572300000000     0.244      
H        H      0.900925000000     0.496566666667     0.450666666667     0.255      
H        H      0.865350000000     0.461833333333     0.394500000000     0.256      
H        H      0.808100000000     0.463500000000     0.594366666667     0.242      
C        C      0.869975000000     0.642700000000     0.610333333333     0.606      
C        C      0.832700000000     0.597133333333     0.592933333333    -0.824      
C        C      0.796125000000     0.601166666667     0.585400000000     0.698      
C        C      0.750200000000     0.591966666667     0.458300000000     0.59       
C        C      0.899275000000     0.549633333333     0.556333333333     0.603      
C        C      0.878150000000     0.517333333333     0.573733333333    -0.824      
C        C      0.886825000000     0.476100000000     0.581266666667     0.7        
C        C      0.975250000000     0.541966666667     0.375033333333     0.592      
C        C      0.880025000000     0.357300000000     0.389666666667     0.606      
C        C      0.917300000000     0.402866666667     0.407066666667    -0.824      
C        C      0.953875000000     0.398833333333     0.414600000000     0.698      
C        C      0.999800000000     0.408033333333     0.541700000000     0.59       
C        C      0.850725000000     0.450366666667     0.443666666667     0.603      
C        C      0.871850000000     0.482666666667     0.426266666667    -0.824      
C        C      0.863175000000     0.523900000000     0.418733333333     0.7        
C        C      0.774750000000     0.458033333333     0.624966666667     0.592      
C        C      0.968900000000     0.541866666667     0.416666666667    -0.784      
C        C      0.781100000000     0.458133333333     0.583333333333    -0.784      
O        O      0.866325000000     0.340400000000     0.591566666667    -0.557      
O        O      0.787175000000     0.631300000000     0.569066666667    -0.553      
O        O      0.774650000000     0.572133333333     0.594533333333    -0.62       
O        O      0.904000000000     0.648066666667     0.642600000000    -0.393      
O        O      0.787075000000     0.603200000000     0.480566666667    -0.517      
O        O      0.989375000000     0.623000000000     0.469300000000    -0.64       
O        O      0.936625000000     0.563533333333     0.575100000000    -0.554      
O        O      0.921675000000     0.480500000000     0.597600000000    -0.559      
O        O      0.858200000000     0.438333333333     0.572133333333    -0.632      
O        O      0.879100000000     0.562733333333     0.524066666667    -0.389      
O        O      0.966975000000     0.568866666667     0.352766666667    -0.507      
O        O      0.990275000000     0.516533333333     0.364033333333    -0.626      
O        O      0.883675000000     0.659600000000     0.408433333333    -0.557      
O        O      0.962825000000     0.368700000000     0.430933333333    -0.553      
O        O      0.975350000000     0.427866666667     0.405466666667    -0.62       
O        O      0.846000000000     0.351933333333     0.357400000000    -0.393      
O        O      0.962925000000     0.396800000000     0.519433333333    -0.517      
O        O      0.760625000000     0.377000000000     0.530700000000    -0.64       
O        O      0.813375000000     0.436466666667     0.424900000000    -0.554      
O        O      0.828325000000     0.519500000000     0.402400000000    -0.559      
O        O      0.891800000000     0.561666666667     0.427866666667    -0.632      
O        O      0.870900000000     0.437266666667     0.475933333333    -0.389      
O        O      0.783025000000     0.431133333333     0.647233333333    -0.507      
O        O      0.759725000000     0.483466666667     0.635966666667    -0.626      
Eu       Eu     0.813765000000     0.356116666667     0.873463333333     1.858      
Eu       Eu     0.986990000000     0.544890000000     0.959870000000     1.822      
Eu       Eu     0.936235000000     0.643883333333     0.793203333333     1.859      
Eu       Eu     0.763010000000     0.455110000000     0.706796666667     1.823      
H        H      0.840575000000     0.582766666667     0.950666666667     0.255      
H        H      0.824500000000     0.574033333333     0.894500000000     0.257      
H        H      0.973150000000     0.516900000000     0.761033333333     0.244      
H        H      0.849075000000     0.503433333333     0.882666666667     0.255      
H        H      0.884650000000     0.538166666667     0.938833333333     0.256      
H        H      0.941900000000     0.536500000000     0.738966666667     0.242      
H        H      0.909425000000     0.417233333333     0.716000000000     0.255      
H        H      0.925500000000     0.425966666667     0.772166666667     0.257      
H        H      0.776850000000     0.483100000000     0.905633333333     0.244      
H        H      0.900925000000     0.496566666667     0.784000000000     0.255      
H        H      0.865350000000     0.461833333333     0.727833333333     0.256      
H        H      0.808100000000     0.463500000000     0.927700000000     0.242      
C        C      0.869975000000     0.642700000000     0.943666666667     0.606      
C        C      0.832700000000     0.597133333333     0.926266666667    -0.824      
C        C      0.796125000000     0.601166666667     0.918733333333     0.698      
C        C      0.750200000000     0.591966666667     0.791633333333     0.59       
C        C      0.899275000000     0.549633333333     0.889666666667     0.603      
C        C      0.878150000000     0.517333333333     0.907066666667    -0.824      
C        C      0.886825000000     0.476100000000     0.914600000000     0.7        
C        C      0.975250000000     0.541966666667     0.708366666667     0.592      
C        C      0.880025000000     0.357300000000     0.723000000000     0.606      
C        C      0.917300000000     0.402866666667     0.740400000000    -0.824      
C        C      0.953875000000     0.398833333333     0.747933333333     0.698      
C        C      0.999800000000     0.408033333333     0.875033333333     0.59       
C        C      0.850725000000     0.450366666667     0.777000000000     0.603      
C        C      0.871850000000     0.482666666667     0.759600000000    -0.824      
C        C      0.863175000000     0.523900000000     0.752066666667     0.7        
C        C      0.774750000000     0.458033333333     0.958300000000     0.592      
C        C      0.968900000000     0.541866666667     0.750000000000    -0.784      
C        C      0.781100000000     0.458133333333     0.916666666667    -0.784      
O        O      0.866325000000     0.340400000000     0.924900000000    -0.557      
O        O      0.787175000000     0.631300000000     0.902400000000    -0.553      
O        O      0.774650000000     0.572133333333     0.927866666667    -0.62       
O        O      0.904000000000     0.648066666667     0.975933333333    -0.393      
O        O      0.787075000000     0.603200000000     0.813900000000    -0.517      
O        O      0.989375000000     0.623000000000     0.802633333333    -0.64       
O        O      0.936625000000     0.563533333333     0.908433333333    -0.554      
O        O      0.921675000000     0.480500000000     0.930933333333    -0.559      
O        O      0.858200000000     0.438333333333     0.905466666667    -0.632      
O        O      0.879100000000     0.562733333333     0.857400000000    -0.389      
O        O      0.966975000000     0.568866666667     0.686100000000    -0.507      
O        O      0.990275000000     0.516533333333     0.697366666667    -0.626      
O        O      0.883675000000     0.659600000000     0.741766666667    -0.557      
O        O      0.962825000000     0.368700000000     0.764266666667    -0.553      
O        O      0.975350000000     0.427866666667     0.738800000000    -0.62       
O        O      0.846000000000     0.351933333333     0.690733333333    -0.393      
O        O      0.962925000000     0.396800000000     0.852766666667    -0.517      
O        O      0.760625000000     0.377000000000     0.864033333333    -0.64       
O        O      0.813375000000     0.436466666667     0.758233333333    -0.554      
O        O      0.828325000000     0.519500000000     0.735733333333    -0.559      
O        O      0.891800000000     0.561666666667     0.761200000000    -0.632      
O        O      0.870900000000     0.437266666667     0.809266666667    -0.389      
O        O      0.783025000000     0.431133333333     0.980566666667    -0.507      
O        O      0.759725000000     0.483466666667     0.969300000000    -0.626      
Eu       Eu     0.813765000000     0.689450000000     0.206796666667     1.858      
Eu       Eu     0.986990000000     0.878223333333     0.293203333333     1.822      
Eu       Eu     0.936235000000     0.977216666667     0.126536666667     1.859      
Eu       Eu     0.763010000000     0.788443333333     0.040130000000     1.823      
H        H      0.840575000000     0.916100000000     0.284000000000     0.255      
H        H      0.824500000000     0.907366666667     0.227833333333     0.257      
H        H      0.973150000000     0.850233333333     0.094366666667     0.244      
H        H      0.849075000000     0.836766666667     0.216000000000     0.255      
H        H      0.884650000000     0.871500000000     0.272166666667     0.256      
H        H      0.941900000000     0.869833333333     0.072300000000     0.242      
H        H      0.909425000000     0.750566666667     0.049333333333     0.255      
H        H      0.925500000000     0.759300000000     0.105500000000     0.257      
H        H      0.776850000000     0.816433333333     0.238966666667     0.244      
H        H      0.900925000000     0.829900000000     0.117333333333     0.255      
H        H      0.865350000000     0.795166666667     0.061166666667     0.256      
H        H      0.808100000000     0.796833333333     0.261033333333     0.242      
C        C      0.869975000000     0.976033333333     0.277000000000     0.606      
C        C      0.832700000000     0.930466666667     0.259600000000    -0.824      
C        C      0.796125000000     0.934500000000     0.252066666667     0.698      
C        C      0.750200000000     0.925300000000     0.124966666667     0.59       
C        C      0.899275000000     0.882966666667     0.223000000000     0.603      
C        C      0.878150000000     0.850666666667     0.240400000000    -0.824      
C        C      0.886825000000     0.809433333333     0.247933333333     0.7        
C        C      0.975250000000     0.875300000000     0.041700000000     0.592      
C        C      0.880025000000     0.690633333333     0.056333333333     0.606      
C        C      0.917300000000     0.736200000000     0.073733333333    -0.824      
C        C      0.953875000000     0.732166666667     0.081266666667     0.698      
C        C      0.999800000000     0.741366666667     0.208366666667     0.59       
C        C      0.850725000000     0.783700000000     0.110333333333     0.603      
C        C      0.871850000000     0.816000000000     0.092933333333    -0.824      
C        C      0.863175000000     0.857233333333     0.085400000000     0.7        
C        C      0.774750000000     0.791366666667     0.291633333333     0.592      
C        C      0.968900000000     0.875200000000     0.083333333333    -0.784      
C        C      0.781100000000     0.791466666667     0.250000000000    -0.784      
O        O      0.866325000000     0.673733333333     0.258233333333    -0.557      
O        O      0.787175000000     0.964633333333     0.235733333333    -0.553      
O        O      0.774650000000     0.905466666667     0.261200000000    -0.62       
O        O      0.904000000000     0.981400000000     0.309266666667    -0.393      
O        O      0.787075000000     0.936533333333     0.147233333333    -0.517      
O        O      0.989375000000     0.956333333333     0.135966666667    -0.64       
O        O      0.936625000000     0.896866666667     0.241766666667    -0.554      
O        O      0.921675000000     0.813833333333     0.264266666667    -0.559      
O        O      0.858200000000     0.771666666667     0.238800000000    -0.632      
O        O      0.879100000000     0.896066666667     0.190733333333    -0.389      
O        O      0.966975000000     0.902200000000     0.019433333333    -0.507      
O        O      0.990275000000     0.849866666667     0.030700000000    -0.626      
O        O      0.883675000000     0.992933333333     0.075100000000    -0.557      
O        O      0.962825000000     0.702033333333     0.097600000000    -0.553      
O        O      0.975350000000     0.761200000000     0.072133333333    -0.62       
O        O      0.846000000000     0.685266666667     0.024066666667    -0.393      
O        O      0.962925000000     0.730133333333     0.186100000000    -0.517      
O        O      0.760625000000     0.710333333333     0.197366666667    -0.64       
O        O      0.813375000000     0.769800000000     0.091566666667    -0.554      
O        O      0.828325000000     0.852833333333     0.069066666667    -0.559      
O        O      0.891800000000     0.895000000000     0.094533333333    -0.632      
O        O      0.870900000000     0.770600000000     0.142600000000    -0.389      
O        O      0.783025000000     0.764466666667     0.313900000000    -0.507      
O        O      0.759725000000     0.816800000000     0.302633333333    -0.626      
Eu       Eu     0.813765000000     0.689450000000     0.540130000000     1.858      
Eu       Eu     0.986990000000     0.878223333333     0.626536666667     1.822      
Eu       Eu     0.936235000000     0.977216666667     0.459870000000     1.859      
Eu       Eu     0.763010000000     0.788443333333     0.373463333333     1.823      
H        H      0.840575000000     0.916100000000     0.617333333333     0.255      
H        H      0.824500000000     0.907366666667     0.561166666667     0.257      
H        H      0.973150000000     0.850233333333     0.427700000000     0.244      
H        H      0.849075000000     0.836766666667     0.549333333333     0.255      
H        H      0.884650000000     0.871500000000     0.605500000000     0.256      
H        H      0.941900000000     0.869833333333     0.405633333333     0.242      
H        H      0.909425000000     0.750566666667     0.382666666667     0.255      
H        H      0.925500000000     0.759300000000     0.438833333333     0.257      
H        H      0.776850000000     0.816433333333     0.572300000000     0.244      
H        H      0.900925000000     0.829900000000     0.450666666667     0.255      
H        H      0.865350000000     0.795166666667     0.394500000000     0.256      
H        H      0.808100000000     0.796833333333     0.594366666667     0.242      
C        C      0.869975000000     0.976033333333     0.610333333333     0.606      
C        C      0.832700000000     0.930466666667     0.592933333333    -0.824      
C        C      0.796125000000     0.934500000000     0.585400000000     0.698      
C        C      0.750200000000     0.925300000000     0.458300000000     0.59       
C        C      0.899275000000     0.882966666667     0.556333333333     0.603      
C        C      0.878150000000     0.850666666667     0.573733333333    -0.824      
C        C      0.886825000000     0.809433333333     0.581266666667     0.7        
C        C      0.975250000000     0.875300000000     0.375033333333     0.592      
C        C      0.880025000000     0.690633333333     0.389666666667     0.606      
C        C      0.917300000000     0.736200000000     0.407066666667    -0.824      
C        C      0.953875000000     0.732166666667     0.414600000000     0.698      
C        C      0.999800000000     0.741366666667     0.541700000000     0.59       
C        C      0.850725000000     0.783700000000     0.443666666667     0.603      
C        C      0.871850000000     0.816000000000     0.426266666667    -0.824      
C        C      0.863175000000     0.857233333333     0.418733333333     0.7        
C        C      0.774750000000     0.791366666667     0.624966666667     0.592      
C        C      0.968900000000     0.875200000000     0.416666666667    -0.784      
C        C      0.781100000000     0.791466666667     0.583333333333    -0.784      
O        O      0.866325000000     0.673733333333     0.591566666667    -0.557      
O        O      0.787175000000     0.964633333333     0.569066666667    -0.553      
O        O      0.774650000000     0.905466666667     0.594533333333    -0.62       
O        O      0.904000000000     0.981400000000     0.642600000000    -0.393      
O        O      0.787075000000     0.936533333333     0.480566666667    -0.517      
O        O      0.989375000000     0.956333333333     0.469300000000    -0.64       
O        O      0.936625000000     0.896866666667     0.575100000000    -0.554      
O        O      0.921675000000     0.813833333333     0.597600000000    -0.559      
O        O      0.858200000000     0.771666666667     0.572133333333    -0.632      
O        O      0.879100000000     0.896066666667     0.524066666667    -0.389      
O        O      0.966975000000     0.902200000000     0.352766666667    -0.507      
O        O      0.990275000000     0.849866666667     0.364033333333    -0.626      
O        O      0.883675000000     0.992933333333     0.408433333333    -0.557      
O        O      0.962825000000     0.702033333333     0.430933333333    -0.553      
O        O      0.975350000000     0.761200000000     0.405466666667    -0.62       
O        O      0.846000000000     0.685266666667     0.357400000000    -0.393      
O        O      0.962925000000     0.730133333333     0.519433333333    -0.517      
O        O      0.760625000000     0.710333333333     0.530700000000    -0.64       
O        O      0.813375000000     0.769800000000     0.424900000000    -0.554      
O        O      0.828325000000     0.852833333333     0.402400000000    -0.559      
O        O      0.891800000000     0.895000000000     0.427866666667    -0.632      
O        O      0.870900000000     0.770600000000     0.475933333333    -0.389      
O        O      0.783025000000     0.764466666667     0.647233333333    -0.507      
O        O      0.759725000000     0.816800000000     0.635966666667    -0.626      
Eu       Eu     0.813765000000     0.689450000000     0.873463333333     1.858      
Eu       Eu     0.986990000000     0.878223333333     0.959870000000     1.822      
Eu       Eu     0.936235000000     0.977216666667     0.793203333333     1.859      
Eu       Eu     0.763010000000     0.788443333333     0.706796666667     1.823      
H        H      0.840575000000     0.916100000000     0.950666666667     0.255      
H        H      0.824500000000     0.907366666667     0.894500000000     0.257      
H        H      0.973150000000     0.850233333333     0.761033333333     0.244      
H        H      0.849075000000     0.836766666667     0.882666666667     0.255      
H        H      0.884650000000     0.871500000000     0.938833333333     0.256      
H        H      0.941900000000     0.869833333333     0.738966666667     0.242      
H        H      0.909425000000     0.750566666667     0.716000000000     0.255      
H        H      0.925500000000     0.759300000000     0.772166666667     0.257      
H        H      0.776850000000     0.816433333333     0.905633333333     0.244      
H        H      0.900925000000     0.829900000000     0.784000000000     0.255      
H        H      0.865350000000     0.795166666667     0.727833333333     0.256      
H        H      0.808100000000     0.796833333333     0.927700000000     0.242      
C        C      0.869975000000     0.976033333333     0.943666666667     0.606      
C        C      0.832700000000     0.930466666667     0.926266666667    -0.824      
C        C      0.796125000000     0.934500000000     0.918733333333     0.698      
C        C      0.750200000000     0.925300000000     0.791633333333     0.59       
C        C      0.899275000000     0.882966666667     0.889666666667     0.603      
C        C      0.878150000000     0.850666666667     0.907066666667    -0.824      
C        C      0.886825000000     0.809433333333     0.914600000000     0.7        
C        C      0.975250000000     0.875300000000     0.708366666667     0.592      
C        C      0.880025000000     0.690633333333     0.723000000000     0.606      
C        C      0.917300000000     0.736200000000     0.740400000000    -0.824      
C        C      0.953875000000     0.732166666667     0.747933333333     0.698      
C        C      0.999800000000     0.741366666667     0.875033333333     0.59       
C        C      0.850725000000     0.783700000000     0.777000000000     0.603      
C        C      0.871850000000     0.816000000000     0.759600000000    -0.824      
C        C      0.863175000000     0.857233333333     0.752066666667     0.7        
C        C      0.774750000000     0.791366666667     0.958300000000     0.592      
C        C      0.968900000000     0.875200000000     0.750000000000    -0.784      
C        C      0.781100000000     0.791466666667     0.916666666667    -0.784      
O        O      0.866325000000     0.673733333333     0.924900000000    -0.557      
O        O      0.787175000000     0.964633333333     0.902400000000    -0.553      
O        O      0.774650000000     0.905466666667     0.927866666667    -0.62       
O        O      0.904000000000     0.981400000000     0.975933333333    -0.393      
O        O      0.787075000000     0.936533333333     0.813900000000    -0.517      
O        O      0.989375000000     0.956333333333     0.802633333333    -0.64       
O        O      0.936625000000     0.896866666667     0.908433333333    -0.554      
O        O      0.921675000000     0.813833333333     0.930933333333    -0.559      
O        O      0.858200000000     0.771666666667     0.905466666667    -0.632      
O        O      0.879100000000     0.896066666667     0.857400000000    -0.389      
O        O      0.966975000000     0.902200000000     0.686100000000    -0.507      
O        O      0.990275000000     0.849866666667     0.697366666667    -0.626      
O        O      0.883675000000     0.992933333333     0.741766666667    -0.557      
O        O      0.962825000000     0.702033333333     0.764266666667    -0.553      
O        O      0.975350000000     0.761200000000     0.738800000000    -0.62       
O        O      0.846000000000     0.685266666667     0.690733333333    -0.393      
O        O      0.962925000000     0.730133333333     0.852766666667    -0.517      
O        O      0.760625000000     0.710333333333     0.864033333333    -0.64       
O        O      0.813375000000     0.769800000000     0.758233333333    -0.554      
O        O      0.828325000000     0.852833333333     0.735733333333    -0.559      
O        O      0.891800000000     0.895000000000     0.761200000000    -0.632      
O        O      0.870900000000     0.770600000000     0.809266666667    -0.389      
O        O      0.783025000000     0.764466666667     0.980566666667    -0.507      
O        O      0.759725000000     0.816800000000     0.969300000000    -0.626      


