data_crystal

_cell_length_a 26.96290
_cell_length_b 26.96290
_cell_length_c 27.53650
_cell_angle_alpha 90.00000
_cell_angle_beta  90.00000
_cell_angle_gamma 90.00000

_symmetry_space_group_name_	'P 1'
_symmetry_space_group_name_H-M	'P 1'

loop_
_symmetry_equiv_pos_as_xyz
  x,y,z

loop_
_atom_site_label
_atom_site_type_symbol
_atom_site_fract_x
_atom_site_fract_y
_atom_site_fract_z
_atom_site_charge
N 	N 	0.41850 0.48770 0.68970 -0.25100
N 	N 	0.69190 0.41660 0.48550 -0.24500
C 	C 	0.39570 0.46700 0.65100 0.07900
H 	H 	0.36630 0.44970 0.65620 -0.02100
C 	C 	0.41390 0.47010 0.60440 -0.15800
H 	H 	0.39690 0.45560 0.57860 0.08400
C 	C 	0.45850 0.49550 0.59650 0.09000
C 	C 	0.48320 0.51430 0.63640 -0.16600
H 	H 	0.51400 0.52940 0.63280 0.08200
C 	C 	0.46150 0.51040 0.68200 0.08600
H 	H 	0.47790 0.52430 0.70840 -0.02600
C 	C 	0.47970 0.49940 0.54740 -0.02200
C 	C 	0.52860 0.48530 0.53900 -0.05700
H 	H 	0.54800 0.47580 0.56530 0.04800
C 	C 	0.54940 0.48490 0.49320 -0.02100
C 	C 	0.59960 0.46350 0.48800 0.09100
C 	C 	0.63830 0.47970 0.51710 -0.16200
H 	H 	0.63400 0.50660 0.53780 0.08200
C 	C 	0.68360 0.45540 0.51480 0.08100
H 	H 	0.70940 0.46660 0.53450 -0.02000
C 	C 	0.65500 0.40200 0.45680 0.08300
H 	H 	0.66080 0.37590 0.43540 -0.01900
C 	C 	0.60830 0.42370 0.45710 -0.16100
H 	H 	0.58330 0.41180 0.43700 0.08500
N 	N 	0.91850 0.98770 0.18970 -0.23600
N 	N 	0.19190 0.91660 0.98550 -0.22100
C 	C 	0.89570 0.96700 0.15100 0.07900
H 	H 	0.86630 0.94970 0.15620 -0.01800
C 	C 	0.91390 0.97010 0.10440 -0.14700
H 	H 	0.89690 0.95560 0.07860 0.08200
C 	C 	0.95850 0.99550 0.09650 0.08600
C 	C 	0.98320 0.01430 0.13640 -0.17300
H 	H 	0.01400 0.02940 0.13280 0.07800
C 	C 	0.96150 0.01040 0.18200 0.06700
H 	H 	0.97790 0.02430 0.20840 -0.02300
C 	C 	0.97970 0.99940 0.04740 0.04000
C 	C 	0.02860 0.98530 0.03900 -0.13700
H 	H 	0.04800 0.97580 0.06530 0.07600
C 	C 	0.04940 0.98490 0.99320 0.06400
C 	C 	0.09960 0.96350 0.98800 0.07000
C 	C 	0.13830 0.97970 0.01710 -0.12100
H 	H 	0.13400 0.00660 0.03780 0.04800
C 	C 	0.18360 0.95540 0.01480 0.03500
H 	H 	0.20940 0.96660 0.03450 -0.00500
C 	C 	0.15500 0.90200 0.95680 0.07600
H 	H 	0.16080 0.87590 0.93540 -0.01400
C 	C 	0.10830 0.92370 0.95710 -0.13600
H 	H 	0.08330 0.91180 0.93700 0.08100
N 	N 	0.08150 0.51230 0.18970 -0.24800
N 	N 	0.80810 0.58340 0.98550 -0.22900
C 	C 	0.10430 0.53300 0.15100 0.07400
H 	H 	0.13370 0.55030 0.15620 -0.02000
C 	C 	0.08610 0.52990 0.10440 -0.14800
H 	H 	0.10310 0.54440 0.07860 0.07900
C 	C 	0.04150 0.50450 0.09650 0.07700
C 	C 	0.01680 0.48570 0.13640 -0.15700
H 	H 	0.98600 0.47060 0.13280 0.07800
C 	C 	0.03850 0.48960 0.18200 0.08200
H 	H 	0.02210 0.47570 0.20840 -0.02400
C 	C 	0.02030 0.50060 0.04740 0.00400
C 	C 	0.97140 0.51470 0.03900 -0.10800
H 	H 	0.95200 0.52420 0.06530 0.06200
C 	C 	0.95060 0.51510 0.99320 0.01800
C 	C 	0.90040 0.53650 0.98800 0.10500
C 	C 	0.86170 0.52030 0.01710 -0.18300
H 	H 	0.86600 0.49340 0.03780 0.08300
C 	C 	0.81640 0.54460 0.01480 0.06400
H 	H 	0.79060 0.53340 0.03450 -0.01900
C 	C 	0.84500 0.59800 0.95680 0.08900
H 	H 	0.83920 0.62410 0.93540 -0.01900
C 	C 	0.89170 0.57630 0.95710 -0.16100
H 	H 	0.91670 0.58820 0.93700 0.08800
N 	N 	0.58150 0.01230 0.68970 -0.26000
N 	N 	0.30810 0.08340 0.48550 -0.25200
C 	C 	0.60430 0.03300 0.65100 0.07500
H 	H 	0.63370 0.05030 0.65620 -0.02100
C 	C 	0.58610 0.02990 0.60440 -0.15900
H 	H 	0.60310 0.04440 0.57860 0.08200
C 	C 	0.54150 0.00450 0.59650 0.08200
C 	C 	0.51680 0.98570 0.63640 -0.14900
H 	H 	0.48600 0.97060 0.63280 0.08300
C 	C 	0.53850 0.98960 0.68200 0.10100
H 	H 	0.52210 0.97570 0.70840 -0.02400
C 	C 	0.52030 0.00060 0.54740 -0.05900
C 	C 	0.47140 0.01470 0.53900 -0.02600
H 	H 	0.45200 0.02420 0.56530 0.03400
C 	C 	0.45060 0.01510 0.49320 -0.06800
C 	C 	0.40040 0.03650 0.48800 0.12600
C 	C 	0.36170 0.02030 0.51710 -0.22500
H 	H 	0.36600 0.99340 0.53780 0.11800
C 	C 	0.31640 0.04460 0.51480 0.11000
H 	H 	0.29060 0.03340 0.53450 -0.03400
C 	C 	0.34500 0.09800 0.45680 0.09600
H 	H 	0.33920 0.12410 0.43540 -0.02400
C 	C 	0.39170 0.07630 0.45710 -0.18600
H 	H 	0.41670 0.08820 0.43700 0.09200
N 	N 	0.76230 0.16850 0.93970 -0.24400
N 	N 	0.83340 0.44190 0.73550 -0.24400
C 	C 	0.78300 0.14570 0.90100 0.08000
H 	H 	0.80030 0.11630 0.90620 -0.01900
C 	C 	0.77990 0.16390 0.85440 -0.15600
H 	H 	0.79440 0.14690 0.82860 0.08400
C 	C 	0.75450 0.20850 0.84650 0.09100
C 	C 	0.73570 0.23320 0.88640 -0.16300
H 	H 	0.72060 0.26400 0.88280 0.08400
C 	C 	0.73960 0.21150 0.93200 0.08700
H 	H 	0.72570 0.22790 0.95840 -0.01900
C 	C 	0.75060 0.22970 0.79740 -0.02100
C 	C 	0.76470 0.27860 0.78900 -0.05700
H 	H 	0.77420 0.29800 0.81530 0.04900
C 	C 	0.76510 0.29940 0.74320 -0.02100
C 	C 	0.78650 0.34960 0.73800 0.09100
C 	C 	0.77030 0.38830 0.76710 -0.16200
H 	H 	0.74340 0.38400 0.78780 0.08200
C 	C 	0.79460 0.43360 0.76480 0.08100
H 	H 	0.78340 0.45940 0.78450 -0.02000
C 	C 	0.84800 0.40500 0.70680 0.08300
H 	H 	0.87410 0.41080 0.68540 -0.01900
C 	C 	0.82630 0.35830 0.70710 -0.16100
H 	H 	0.83820 0.33330 0.68700 0.08600
N 	N 	0.26230 0.66850 0.43970 -0.25000
N 	N 	0.33340 0.94190 0.23550 -0.23900
C 	C 	0.28300 0.64570 0.40100 0.08000
H 	H 	0.30030 0.61630 0.40620 -0.02000
C 	C 	0.27990 0.66390 0.35440 -0.15700
H 	H 	0.29440 0.64690 0.32860 0.08500
C 	C 	0.25450 0.70850 0.34650 0.09100
C 	C 	0.23570 0.73320 0.38640 -0.16500
H 	H 	0.22060 0.76400 0.38280 0.08300
C 	C 	0.23960 0.71150 0.43200 0.08700
H 	H 	0.22570 0.72790 0.45840 -0.02500
C 	C 	0.25060 0.72970 0.29740 -0.02200
C 	C 	0.26470 0.77860 0.28900 -0.05700
H 	H 	0.27420 0.79800 0.31530 0.04900
C 	C 	0.26510 0.79940 0.24320 -0.02000
C 	C 	0.28650 0.84960 0.23800 0.09100
C 	C 	0.27030 0.88830 0.26710 -0.16100
H 	H 	0.24340 0.88400 0.28780 0.08300
C 	C 	0.29460 0.93360 0.26480 0.08100
H 	H 	0.28340 0.95940 0.28450 -0.01500
C 	C 	0.34800 0.90500 0.20680 0.08400
H 	H 	0.37410 0.91080 0.18540 -0.01700
C 	C 	0.32630 0.85830 0.20710 -0.16000
H 	H 	0.33820 0.83330 0.18700 0.08500
N 	N 	0.73770 0.83150 0.43970 -0.25000
N 	N 	0.66660 0.55810 0.23550 -0.24400
C 	C 	0.71700 0.85430 0.40100 0.08000
H 	H 	0.69970 0.88370 0.40620 -0.01900
C 	C 	0.72010 0.83610 0.35440 -0.15700
H 	H 	0.70560 0.85310 0.32860 0.08600
C 	C 	0.74550 0.79150 0.34650 0.09100
C 	C 	0.76430 0.76680 0.38640 -0.16500
H 	H 	0.77940 0.73600 0.38280 0.08300
C 	C 	0.76040 0.78850 0.43200 0.08700
H 	H 	0.77430 0.77210 0.45840 -0.02500
C 	C 	0.74940 0.77030 0.29740 -0.02200
C 	C 	0.73530 0.72140 0.28900 -0.05700
H 	H 	0.72580 0.70200 0.31530 0.04800
C 	C 	0.73490 0.70060 0.24320 -0.02100
C 	C 	0.71350 0.65040 0.23800 0.09100
C 	C 	0.72970 0.61170 0.26710 -0.16200
H 	H 	0.75660 0.61600 0.28780 0.08100
C 	C 	0.70540 0.56640 0.26480 0.08100
H 	H 	0.71660 0.54060 0.28450 -0.02000
C 	C 	0.65200 0.59500 0.20680 0.08300
H 	H 	0.62590 0.58920 0.18540 -0.02000
C 	C 	0.67370 0.64170 0.20710 -0.16100
H 	H 	0.66180 0.66670 0.18700 0.08500
N 	N 	0.23770 0.33150 0.93970 -0.24400
N 	N 	0.16660 0.05810 0.73550 -0.24600
C 	C 	0.21700 0.35430 0.90100 0.08100
H 	H 	0.19970 0.38370 0.90620 -0.01800
C 	C 	0.22010 0.33610 0.85440 -0.15600
H 	H 	0.20560 0.35310 0.82860 0.08500
C 	C 	0.24550 0.29150 0.84650 0.09100
C 	C 	0.26430 0.26680 0.88640 -0.16300
H 	H 	0.27940 0.23600 0.88280 0.08300
C 	C 	0.26040 0.28850 0.93200 0.08700
H 	H 	0.27430 0.27210 0.95840 -0.01900
C 	C 	0.24940 0.27030 0.79740 -0.02100
C 	C 	0.23530 0.22140 0.78900 -0.05700
H 	H 	0.22580 0.20200 0.81530 0.04900
C 	C 	0.23490 0.20060 0.74320 -0.02100
C 	C 	0.21350 0.15040 0.73800 0.09200
C 	C 	0.22970 0.11170 0.76710 -0.16400
H 	H 	0.25660 0.11600 0.78780 0.08100
C 	C 	0.20540 0.06640 0.76480 0.08100
H 	H 	0.21660 0.04060 0.78450 -0.02400
C 	C 	0.15200 0.09500 0.70680 0.08300
H 	H 	0.12590 0.08920 0.68540 -0.02100
C 	C 	0.17370 0.14170 0.70710 -0.16100
H 	H 	0.16180 0.16670 0.68700 0.08600
N 	N 	0.08150 0.48770 0.31030 -0.25000
N 	N 	0.80810 0.41660 0.51450 -0.24400
C 	C 	0.10430 0.46700 0.34900 0.08000
H 	H 	0.13370 0.44970 0.34380 -0.02000
C 	C 	0.08610 0.47010 0.39560 -0.15700
H 	H 	0.10310 0.45560 0.42140 0.08500
C 	C 	0.04150 0.49550 0.40350 0.09100
C 	C 	0.01680 0.51430 0.36360 -0.16600
H 	H 	0.98600 0.52940 0.36720 0.08300
C 	C 	0.03850 0.51040 0.31800 0.08700
H 	H 	0.02210 0.52430 0.29160 -0.02500
C 	C 	0.02030 0.49940 0.45260 -0.02200
C 	C 	0.97140 0.48530 0.46100 -0.05600
H 	H 	0.95200 0.47580 0.43470 0.04800
C 	C 	0.95060 0.48490 0.50680 -0.02100
C 	C 	0.90040 0.46350 0.51200 0.09100
C 	C 	0.86170 0.47970 0.48290 -0.16200
H 	H 	0.86600 0.50660 0.46220 0.08200
C 	C 	0.81640 0.45540 0.48520 0.08100
H 	H 	0.79060 0.46660 0.46550 -0.02000
C 	C 	0.84500 0.40200 0.54320 0.08300
H 	H 	0.83920 0.37590 0.56460 -0.01900
C 	C 	0.89170 0.42370 0.54290 -0.16100
H 	H 	0.91670 0.41180 0.56300 0.08600
N 	N 	0.58150 0.98770 0.81030 -0.23900
N 	N 	0.30810 0.91660 0.01450 -0.24700
C 	C 	0.60430 0.96700 0.84900 0.09000
H 	H 	0.63370 0.94970 0.84380 -0.02000
C 	C 	0.58610 0.97010 0.89560 -0.16500
H 	H 	0.60310 0.95560 0.92140 0.09500
C 	C 	0.54150 0.99550 0.90350 0.11600
C 	C 	0.51680 0.01430 0.86360 -0.19000
H 	H 	0.48600 0.02940 0.86720 0.08700
C 	C 	0.53850 0.01040 0.81800 0.07700
H 	H 	0.52210 0.02430 0.79160 -0.02600
C 	C 	0.52030 0.99940 0.95260 -0.01100
C 	C 	0.47140 0.98530 0.96100 -0.03500
H 	H 	0.45200 0.97580 0.93470 0.04900
C 	C 	0.45060 0.98490 0.00680 -0.01400
C 	C 	0.40040 0.96350 0.01200 0.04400
C 	C 	0.36170 0.97970 0.98290 -0.08000
H 	H 	0.36600 0.00660 0.96220 0.04400
C 	C 	0.31640 0.95540 0.98520 0.07000
H 	H 	0.29060 0.96660 0.96550 -0.00700
C 	C 	0.34500 0.90200 0.04320 0.06600
H 	H 	0.33920 0.87590 0.06460 -0.01400
C 	C 	0.39170 0.92370 0.04290 -0.13500
H 	H 	0.41670 0.91180 0.06300 0.07800
N 	N 	0.41850 0.51230 0.81030 -0.25200
N 	N 	0.69190 0.58340 0.01450 -0.25600
C 	C 	0.39570 0.53300 0.84900 0.08600
H 	H 	0.36630 0.55030 0.84380 -0.02100
C 	C 	0.41390 0.52990 0.89560 -0.16600
H 	H 	0.39690 0.54440 0.92140 0.09200
C 	C 	0.45850 0.50450 0.90350 0.10600
C 	C 	0.48320 0.48570 0.86360 -0.17400
H 	H 	0.51400 0.47060 0.86720 0.08700
C 	C 	0.46150 0.48960 0.81800 0.09200
H 	H 	0.47790 0.47570 0.79160 -0.02600
C 	C 	0.47970 0.50060 0.95260 -0.04800
C 	C 	0.52860 0.51470 0.96100 -0.00500
H 	H 	0.54800 0.52420 0.93470 0.03400
C 	C 	0.54940 0.51510 0.00680 -0.06100
C 	C 	0.59960 0.53650 0.01200 0.07800
C 	C 	0.63830 0.52030 0.98290 -0.14100
H 	H 	0.63400 0.49340 0.96220 0.08000
C 	C 	0.68360 0.54460 0.98520 0.09800
H 	H 	0.70940 0.53340 0.96550 -0.02100
C 	C 	0.65500 0.59800 0.04320 0.07800
H 	H 	0.66080 0.62410 0.06460 -0.01900
C 	C 	0.60830 0.57630 0.04290 -0.16000
H 	H 	0.58330 0.58820 0.06300 0.08400
N 	N 	0.91850 0.01230 0.31030 -0.26000
N 	N 	0.19190 0.08340 0.51450 -0.25200
C 	C 	0.89570 0.03300 0.34900 0.07500
H 	H 	0.86630 0.05030 0.34380 -0.02100
C 	C 	0.91390 0.02990 0.39560 -0.15900
H 	H 	0.89690 0.04440 0.42140 0.08200
C 	C 	0.95850 0.00450 0.40350 0.08200
C 	C 	0.98320 0.98570 0.36360 -0.14900
H 	H 	0.01400 0.97060 0.36720 0.08300
C 	C 	0.96150 0.98960 0.31800 0.10100
H 	H 	0.97790 0.97570 0.29160 -0.02500
C 	C 	0.97970 0.00060 0.45260 -0.05900
C 	C 	0.02860 0.01470 0.46100 -0.02600
H 	H 	0.04800 0.02420 0.43470 0.03400
C 	C 	0.04940 0.01510 0.50680 -0.06800
C 	C 	0.09960 0.03650 0.51200 0.12600
C 	C 	0.13830 0.02030 0.48290 -0.22500
H 	H 	0.13400 0.99340 0.46220 0.11800
C 	C 	0.18360 0.04460 0.48520 0.10900
H 	H 	0.20940 0.03340 0.46550 -0.03400
C 	C 	0.15500 0.09800 0.54320 0.09600
H 	H 	0.16080 0.12410 0.56460 -0.02400
C 	C 	0.10830 0.07630 0.54290 -0.18600
H 	H 	0.08330 0.08820 0.56300 0.09200
N 	N 	0.73770 0.16850 0.06030 -0.25300
N 	N 	0.66660 0.44190 0.26450 -0.24400
C 	C 	0.71700 0.14570 0.09900 0.07800
H 	H 	0.69970 0.11630 0.09380 -0.02300
C 	C 	0.72010 0.16390 0.14560 -0.15800
H 	H 	0.70560 0.14690 0.17140 0.08400
C 	C 	0.74550 0.20850 0.15350 0.09100
C 	C 	0.76430 0.23320 0.11360 -0.16700
H 	H 	0.77940 0.26400 0.11720 0.08100
C 	C 	0.76040 0.21150 0.06800 0.08600
H 	H 	0.77430 0.22790 0.04160 -0.03100
C 	C 	0.74940 0.22970 0.20260 -0.02300
C 	C 	0.73530 0.27860 0.21100 -0.05600
H 	H 	0.72580 0.29800 0.18470 0.04700
C 	C 	0.73490 0.29940 0.25680 -0.02200
C 	C 	0.71350 0.34960 0.26200 0.09100
C 	C 	0.72970 0.38830 0.23290 -0.16300
H 	H 	0.75660 0.38400 0.21220 0.08100
C 	C 	0.70540 0.43360 0.23520 0.08000
H 	H 	0.71660 0.45940 0.21550 -0.02100
C 	C 	0.65200 0.40500 0.29320 0.08300
H 	H 	0.62590 0.41080 0.31460 -0.01900
C 	C 	0.67370 0.35830 0.29290 -0.16100
H 	H 	0.66180 0.33330 0.31300 0.08500
N 	N 	0.23770 0.66850 0.56030 -0.25000
N 	N 	0.16660 0.94190 0.76450 -0.23900
C 	C 	0.21700 0.64570 0.59900 0.08000
H 	H 	0.19970 0.61630 0.59380 -0.02000
C 	C 	0.22010 0.66390 0.64560 -0.15700
H 	H 	0.20560 0.64690 0.67140 0.08500
C 	C 	0.24550 0.70850 0.65350 0.09200
C 	C 	0.26430 0.73320 0.61360 -0.16500
H 	H 	0.27940 0.76400 0.61720 0.08400
C 	C 	0.26040 0.71150 0.56800 0.08700
H 	H 	0.27430 0.72790 0.54160 -0.02500
C 	C 	0.24940 0.72970 0.70260 -0.02200
C 	C 	0.23530 0.77860 0.71100 -0.05600
H 	H 	0.22580 0.79800 0.68470 0.04900
C 	C 	0.23490 0.79940 0.75680 -0.02100
C 	C 	0.21350 0.84960 0.76200 0.09200
C 	C 	0.22970 0.88830 0.73290 -0.16100
H 	H 	0.25660 0.88400 0.71220 0.08300
C 	C 	0.20540 0.93360 0.73520 0.08200
H 	H 	0.21660 0.95940 0.71550 -0.01500
C 	C 	0.15200 0.90500 0.79320 0.08400
H 	H 	0.12590 0.91080 0.81460 -0.01700
C 	C 	0.17370 0.85830 0.79290 -0.16000
H 	H 	0.16180 0.83330 0.81300 0.08600
N 	N 	0.76230 0.83150 0.56030 -0.25000
N 	N 	0.83340 0.55810 0.76450 -0.24400
C 	C 	0.78300 0.85430 0.59900 0.08000
H 	H 	0.80030 0.88370 0.59380 -0.01900
C 	C 	0.77990 0.83610 0.64560 -0.15700
H 	H 	0.79440 0.85310 0.67140 0.08700
C 	C 	0.75450 0.79150 0.65350 0.09200
C 	C 	0.73570 0.76680 0.61360 -0.16500
H 	H 	0.72060 0.73600 0.61720 0.08300
C 	C 	0.73960 0.78850 0.56800 0.08700
H 	H 	0.72570 0.77210 0.54160 -0.02500
C 	C 	0.75060 0.77030 0.70260 -0.02200
C 	C 	0.76470 0.72140 0.71100 -0.05600
H 	H 	0.77420 0.70200 0.68470 0.04800
C 	C 	0.76510 0.70060 0.75680 -0.02200
C 	C 	0.78650 0.65040 0.76200 0.09200
C 	C 	0.77030 0.61170 0.73290 -0.16300
H 	H 	0.74340 0.61600 0.71220 0.08200
C 	C 	0.79460 0.56640 0.73520 0.08100
H 	H 	0.78340 0.54060 0.71550 -0.02000
C 	C 	0.84800 0.59500 0.79320 0.08400
H 	H 	0.87410 0.58920 0.81460 -0.01900
C 	C 	0.82630 0.64170 0.79290 -0.16100
H 	H 	0.83820 0.66670 0.81300 0.08700
N 	N 	0.26230 0.33150 0.06030 -0.25300
N 	N 	0.33340 0.05810 0.26450 -0.24700
C 	C 	0.28300 0.35430 0.09900 0.07900
H 	H 	0.30030 0.38370 0.09380 -0.02200
C 	C 	0.27990 0.33610 0.14560 -0.15800
H 	H 	0.29440 0.35310 0.17140 0.08500
C 	C 	0.25450 0.29150 0.15350 0.09100
C 	C 	0.23570 0.26680 0.11360 -0.16700
H 	H 	0.22060 0.23600 0.11720 0.08000
C 	C 	0.23960 0.28850 0.06800 0.08600
H 	H 	0.22570 0.27210 0.04160 -0.03100
C 	C 	0.25060 0.27030 0.20260 -0.02300
C 	C 	0.26470 0.22140 0.21100 -0.05600
H 	H 	0.27420 0.20200 0.18470 0.04600
C 	C 	0.26510 0.20060 0.25680 -0.02200
C 	C 	0.28650 0.15040 0.26200 0.09100
C 	C 	0.27030 0.11170 0.23290 -0.16400
H 	H 	0.24340 0.11600 0.21220 0.08000
C 	C 	0.29460 0.06640 0.23520 0.08000
H 	H 	0.28340 0.04060 0.21550 -0.02500
C 	C 	0.34800 0.09500 0.29320 0.08200
H 	H 	0.37410 0.08920 0.31460 -0.02100
C 	C 	0.32630 0.14170 0.29290 -0.16200
H 	H 	0.33820 0.16670 0.31300 0.08500
N 	N 	0.58150 0.51230 0.31030 -0.25000
N 	N 	0.30810 0.58340 0.51450 -0.24400
C 	C 	0.60430 0.53300 0.34900 0.08000
H 	H 	0.63370 0.55030 0.34380 -0.02000
C 	C 	0.58610 0.52990 0.39560 -0.15700
H 	H 	0.60310 0.54440 0.42140 0.08500
C 	C 	0.54150 0.50450 0.40350 0.09100
C 	C 	0.51680 0.48570 0.36360 -0.16500
H 	H 	0.48600 0.47060 0.36720 0.08200
C 	C 	0.53850 0.48960 0.31800 0.08700
H 	H 	0.52210 0.47570 0.29160 -0.02500
C 	C 	0.52030 0.50060 0.45260 -0.02200
C 	C 	0.47140 0.51470 0.46100 -0.05600
H 	H 	0.45200 0.52420 0.43470 0.04800
C 	C 	0.45060 0.51510 0.50680 -0.02100
C 	C 	0.40040 0.53650 0.51200 0.09100
C 	C 	0.36170 0.52030 0.48290 -0.16200
H 	H 	0.36600 0.49340 0.46220 0.08200
C 	C 	0.31640 0.54460 0.48520 0.08100
H 	H 	0.29060 0.53340 0.46550 -0.02000
C 	C 	0.34500 0.59800 0.54320 0.08300
H 	H 	0.33920 0.62410 0.56460 -0.01900
C 	C 	0.39170 0.57630 0.54290 -0.16100
H 	H 	0.41670 0.58820 0.56300 0.08600
N 	N 	0.08150 0.01230 0.81030 -0.26200
N 	N 	0.80810 0.08340 0.01450 -0.26400
C 	C 	0.10430 0.03300 0.84900 0.08100
H 	H 	0.13370 0.05030 0.84380 -0.02200
C 	C 	0.08610 0.02990 0.89560 -0.16800
H 	H 	0.10310 0.04440 0.92140 0.08900
C 	C 	0.04150 0.00450 0.90350 0.09700
C 	C 	0.01680 0.98570 0.86360 -0.15800
H 	H 	0.98600 0.97060 0.86720 0.08700
C 	C 	0.03850 0.98960 0.81800 0.10600
H 	H 	0.02210 0.97570 0.79160 -0.02600
C 	C 	0.02030 0.00060 0.95260 -0.08400
C 	C 	0.97140 0.01470 0.96100 0.02400
H 	H 	0.95200 0.02420 0.93470 0.02000
C 	C 	0.95060 0.01510 0.00680 -0.10600
C 	C 	0.90040 0.03650 0.01200 0.11200
C 	C 	0.86170 0.02030 0.98290 -0.20300
H 	H 	0.86600 0.99340 0.96220 0.11600
C 	C 	0.81640 0.04460 0.98520 0.12600
H 	H 	0.79060 0.03340 0.96550 -0.03500
C 	C 	0.84500 0.09800 0.04320 0.09000
H 	H 	0.83920 0.12410 0.06460 -0.02400
C 	C 	0.89170 0.07630 0.04290 -0.18500
H 	H 	0.91670 0.08820 0.06300 0.09000
N 	N 	0.91850 0.48770 0.81030 -0.25200
N 	N 	0.19190 0.41660 0.01450 -0.25600
C 	C 	0.89570 0.46700 0.84900 0.08500
H 	H 	0.86630 0.44970 0.84380 -0.02100
C 	C 	0.91390 0.47010 0.89560 -0.16600
H 	H 	0.89690 0.45560 0.92140 0.09200
C 	C 	0.95850 0.49550 0.90350 0.10600
C 	C 	0.98320 0.51430 0.86360 -0.17400
H 	H 	0.01400 0.52940 0.86720 0.08700
C 	C 	0.96150 0.51040 0.81800 0.09200
H 	H 	0.97790 0.52430 0.79160 -0.02600
C 	C 	0.97970 0.49940 0.95260 -0.04800
C 	C 	0.02860 0.48530 0.96100 -0.00500
H 	H 	0.04800 0.47580 0.93470 0.03400
C 	C 	0.04940 0.48490 0.00680 -0.06000
C 	C 	0.09960 0.46350 0.01200 0.07800
C 	C 	0.13830 0.47970 0.98290 -0.14100
H 	H 	0.13400 0.50660 0.96220 0.08000
C 	C 	0.18360 0.45540 0.98520 0.09800
H 	H 	0.20940 0.46660 0.96550 -0.02100
C 	C 	0.15500 0.40200 0.04320 0.07800
H 	H 	0.16080 0.37590 0.06460 -0.01900
C 	C 	0.10830 0.42370 0.04290 -0.16000
H 	H 	0.08330 0.41180 0.06300 0.08400
N 	N 	0.41850 0.98770 0.31030 -0.23700
N 	N 	0.69190 0.91660 0.51450 -0.23600
C 	C 	0.39570 0.96700 0.34900 0.08400
H 	H 	0.36630 0.94970 0.34380 -0.01900
C 	C 	0.41390 0.97010 0.39560 -0.15600
H 	H 	0.39690 0.95560 0.42140 0.08800
C 	C 	0.45850 0.99550 0.40350 0.10100
C 	C 	0.48320 0.01430 0.36360 -0.18200
H 	H 	0.51400 0.02940 0.36720 0.08200
C 	C 	0.46150 0.01040 0.31800 0.07200
H 	H 	0.47790 0.02430 0.29160 -0.02500
C 	C 	0.47970 0.99940 0.45260 0.01500
C 	C 	0.52860 0.98530 0.46100 -0.08700
H 	H 	0.54800 0.97580 0.43470 0.06300
C 	C 	0.54940 0.98490 0.50680 0.02600
C 	C 	0.59960 0.96350 0.51200 0.05700
C 	C 	0.63830 0.97970 0.48290 -0.10000
H 	H 	0.63400 0.00660 0.46220 0.04500
C 	C 	0.68360 0.95540 0.48520 0.05200
H 	H 	0.70940 0.96660 0.46550 -0.00600
C 	C 	0.65500 0.90200 0.54320 0.07100
H 	H 	0.66080 0.87590 0.56460 -0.01400
C 	C 	0.60830 0.92370 0.54290 -0.13600
H 	H 	0.58330 0.91180 0.56300 0.07900
N 	N 	0.23770 0.83150 0.06030 -0.25300
N 	N 	0.16660 0.55810 0.26450 -0.24400
C 	C 	0.21700 0.85430 0.09900 0.07900
H 	H 	0.19970 0.88370 0.09380 -0.02100
C 	C 	0.22010 0.83610 0.14560 -0.15800
H 	H 	0.20560 0.85310 0.17140 0.08600
C 	C 	0.24550 0.79150 0.15350 0.09200
C 	C 	0.26430 0.76680 0.11360 -0.16700
H 	H 	0.27940 0.73600 0.11720 0.08100
C 	C 	0.26040 0.78850 0.06800 0.08600
H 	H 	0.27430 0.77210 0.04160 -0.03000
C 	C 	0.24940 0.77030 0.20260 -0.02300
C 	C 	0.23530 0.72140 0.21100 -0.05600
H 	H 	0.22580 0.70200 0.18470 0.04700
C 	C 	0.23490 0.70060 0.25680 -0.02200
C 	C 	0.21350 0.65040 0.26200 0.09100
C 	C 	0.22970 0.61170 0.23290 -0.16300
H 	H 	0.25660 0.61600 0.21220 0.08100
C 	C 	0.20540 0.56640 0.23520 0.08100
H 	H 	0.21660 0.54060 0.21550 -0.02100
C 	C 	0.15200 0.59500 0.29320 0.08300
H 	H 	0.12590 0.58920 0.31460 -0.01900
C 	C 	0.17370 0.64170 0.29290 -0.16100
H 	H 	0.16180 0.66670 0.31300 0.08600
N 	N 	0.73770 0.33150 0.56030 -0.25000
N 	N 	0.66660 0.05810 0.76450 -0.24600
C 	C 	0.71700 0.35430 0.59900 0.08000
H 	H 	0.69970 0.38370 0.59380 -0.02000
C 	C 	0.72010 0.33610 0.64560 -0.15700
H 	H 	0.70560 0.35310 0.67140 0.08500
C 	C 	0.74550 0.29150 0.65350 0.09100
C 	C 	0.76430 0.26680 0.61360 -0.16600
H 	H 	0.77940 0.23600 0.61720 0.08200
C 	C 	0.76040 0.28850 0.56800 0.08600
H 	H 	0.77430 0.27210 0.54160 -0.02600
C 	C 	0.74940 0.27030 0.70260 -0.02300
C 	C 	0.73530 0.22140 0.71100 -0.05600
H 	H 	0.72580 0.20200 0.68470 0.04700
C 	C 	0.73490 0.20060 0.75680 -0.02200
C 	C 	0.71350 0.15040 0.76200 0.09200
C 	C 	0.72970 0.11170 0.73290 -0.16400
H 	H 	0.75660 0.11600 0.71220 0.08100
C 	C 	0.70540 0.06640 0.73520 0.08100
H 	H 	0.71660 0.04060 0.71550 -0.02500
C 	C 	0.65200 0.09500 0.79320 0.08300
H 	H 	0.62590 0.08920 0.81460 -0.02100
C 	C 	0.67370 0.14170 0.79290 -0.16200
H 	H 	0.66180 0.16670 0.81300 0.08600
N 	N 	0.26230 0.16850 0.56030 -0.25000
N 	N 	0.33340 0.44190 0.76450 -0.24400
C 	C 	0.28300 0.14570 0.59900 0.08000
H 	H 	0.30030 0.11630 0.59380 -0.02200
C 	C 	0.27990 0.16390 0.64560 -0.15800
H 	H 	0.29440 0.14690 0.67140 0.08400
C 	C 	0.25450 0.20850 0.65350 0.09100
C 	C 	0.23570 0.23320 0.61360 -0.16500
H 	H 	0.22060 0.26400 0.61720 0.08300
C 	C 	0.23960 0.21150 0.56800 0.08700
H 	H 	0.22570 0.22790 0.54160 -0.02500
C 	C 	0.25060 0.22970 0.70260 -0.02200
C 	C 	0.26470 0.27860 0.71100 -0.05600
H 	H 	0.27420 0.29800 0.68470 0.04800
C 	C 	0.26510 0.29940 0.75680 -0.02200
C 	C 	0.28650 0.34960 0.76200 0.09200
C 	C 	0.27030 0.38830 0.73290 -0.16300
H 	H 	0.24340 0.38400 0.71220 0.08200
C 	C 	0.29460 0.43360 0.73520 0.08100
H 	H 	0.28340 0.45940 0.71550 -0.02000
C 	C 	0.34800 0.40500 0.79320 0.08400
H 	H 	0.37410 0.41080 0.81460 -0.01900
C 	C 	0.32630 0.35830 0.79290 -0.16100
H 	H 	0.33820 0.33330 0.81300 0.08600
N 	N 	0.76230 0.66850 0.06030 -0.25300
N 	N 	0.83340 0.94190 0.26450 -0.23900
C 	C 	0.78300 0.64570 0.09900 0.07900
H 	H 	0.80030 0.61630 0.09380 -0.02200
C 	C 	0.77990 0.66390 0.14560 -0.15800
H 	H 	0.79440 0.64690 0.17140 0.08500
C 	C 	0.75450 0.70850 0.15350 0.09100
C 	C 	0.73570 0.73320 0.11360 -0.16700
H 	H 	0.72060 0.76400 0.11720 0.08200
C 	C 	0.73960 0.71150 0.06800 0.08600
H 	H 	0.72570 0.72790 0.04160 -0.03000
C 	C 	0.75060 0.72970 0.20260 -0.02300
C 	C 	0.76470 0.77860 0.21100 -0.05600
H 	H 	0.77420 0.79800 0.18470 0.04700
C 	C 	0.76510 0.79940 0.25680 -0.02100
C 	C 	0.78650 0.84960 0.26200 0.09100
C 	C 	0.77030 0.88830 0.23290 -0.16100
H 	H 	0.74340 0.88400 0.21220 0.08200
C 	C 	0.79460 0.93360 0.23520 0.08100
H 	H 	0.78340 0.95940 0.21550 -0.01600
C 	C 	0.84800 0.90500 0.29320 0.08400
H 	H 	0.87410 0.91080 0.31460 -0.01700
C 	C 	0.82630 0.85830 0.29290 -0.16000
H 	H 	0.83820 0.83330 0.31300 0.08600
N 	N 	0.91850 0.51230 0.68970 -0.25000
N 	N 	0.19190 0.58340 0.48550 -0.24400
C 	C 	0.89570 0.53300 0.65100 0.08000
H 	H 	0.86630 0.55030 0.65620 -0.02000
C 	C 	0.91390 0.52990 0.60440 -0.15700
H 	H 	0.89690 0.54440 0.57860 0.08500
C 	C 	0.95850 0.50450 0.59650 0.09100
C 	C 	0.98320 0.48570 0.63640 -0.16500
H 	H 	0.01400 0.47060 0.63280 0.08300
C 	C 	0.96150 0.48960 0.68200 0.08700
H 	H 	0.97790 0.47570 0.70840 -0.02500
C 	C 	0.97970 0.50060 0.54740 -0.02200
C 	C 	0.02860 0.51470 0.53900 -0.05700
H 	H 	0.04800 0.52420 0.56530 0.04800
C 	C 	0.04940 0.51510 0.49320 -0.02100
C 	C 	0.09960 0.53650 0.48800 0.09100
C 	C 	0.13830 0.52030 0.51710 -0.16200
H 	H 	0.13400 0.49340 0.53780 0.08200
C 	C 	0.18360 0.54460 0.51480 0.08100
H 	H 	0.20940 0.53340 0.53450 -0.02000
C 	C 	0.15500 0.59800 0.45680 0.08300
H 	H 	0.16080 0.62410 0.43540 -0.01900
C 	C 	0.10830 0.57630 0.45710 -0.16100
H 	H 	0.08330 0.58820 0.43700 0.08600
N 	N 	0.41850 0.01230 0.18970 -0.25800
N 	N 	0.69190 0.08340 0.98550 -0.23800
C 	C 	0.39570 0.03300 0.15100 0.06900
H 	H 	0.36630 0.05030 0.15620 -0.02000
C 	C 	0.41390 0.02990 0.10440 -0.15000
H 	H 	0.39690 0.04440 0.07860 0.07500
C 	C 	0.45850 0.00450 0.09650 0.06700
C 	C 	0.48320 0.98570 0.13640 -0.14000
H 	H 	0.51400 0.97060 0.13280 0.07800
C 	C 	0.46150 0.98960 0.18200 0.09600
H 	H 	0.47790 0.97570 0.20840 -0.02300
C 	C 	0.47970 0.00060 0.04740 -0.03300
C 	C 	0.52860 0.01470 0.03900 -0.07700
H 	H 	0.54800 0.02420 0.06530 0.04700
C 	C 	0.54940 0.01510 0.99320 -0.02900
C 	C 	0.59960 0.03650 0.98800 0.13900
C 	C 	0.63830 0.02030 0.01710 -0.24500
H 	H 	0.63400 0.99340 0.03780 0.11900
C 	C 	0.68360 0.04460 0.01480 0.09200
H 	H 	0.70940 0.03340 0.03450 -0.03300
C 	C 	0.65500 0.09800 0.95680 0.10100
H 	H 	0.66080 0.12410 0.93540 -0.02400
C 	C 	0.60830 0.07630 0.95710 -0.18600
H 	H 	0.58330 0.08820 0.93700 0.09400
N 	N 	0.58150 0.48770 0.18970 -0.24800
N 	N 	0.30810 0.41660 0.98550 -0.22900
C 	C 	0.60430 0.46700 0.15100 0.07400
H 	H 	0.63370 0.44970 0.15620 -0.02000
C 	C 	0.58610 0.47010 0.10440 -0.14800
H 	H 	0.60310 0.45560 0.07860 0.07800
C 	C 	0.54150 0.49550 0.09650 0.07600
C 	C 	0.51680 0.51430 0.13640 -0.15600
H 	H 	0.48600 0.52940 0.13280 0.07800
C 	C 	0.53850 0.51040 0.18200 0.08100
H 	H 	0.52210 0.52430 0.20840 -0.02400
C 	C 	0.52030 0.49940 0.04740 0.00400
C 	C 	0.47140 0.48530 0.03900 -0.10800
H 	H 	0.45200 0.47580 0.06530 0.06200
C 	C 	0.45060 0.48490 0.99320 0.01900
C 	C 	0.40040 0.46350 0.98800 0.10500
C 	C 	0.36170 0.47970 0.01710 -0.18300
H 	H 	0.36600 0.50660 0.03780 0.08300
C 	C 	0.31640 0.45540 0.01480 0.06400
H 	H 	0.29060 0.46660 0.03450 -0.01900
C 	C 	0.34500 0.40200 0.95680 0.08900
H 	H 	0.33920 0.37590 0.93540 -0.01900
C 	C 	0.39170 0.42370 0.95710 -0.16100
H 	H 	0.41670 0.41180 0.93700 0.08700
N 	N 	0.08150 0.98770 0.68970 -0.23700
N 	N 	0.80810 0.91660 0.48550 -0.23600
C 	C 	0.10430 0.96700 0.65100 0.08400
H 	H 	0.13370 0.94970 0.65620 -0.01900
C 	C 	0.08610 0.97010 0.60440 -0.15600
H 	H 	0.10310 0.95560 0.57860 0.08800
C 	C 	0.04150 0.99550 0.59650 0.10100
C 	C 	0.01680 0.01430 0.63640 -0.18100
H 	H 	0.98600 0.02940 0.63280 0.08200
C 	C 	0.03850 0.01040 0.68200 0.07200
H 	H 	0.02210 0.02430 0.70840 -0.02400
C 	C 	0.02030 0.99940 0.54740 0.01500
C 	C 	0.97140 0.98530 0.53900 -0.08700
H 	H 	0.95200 0.97580 0.56530 0.06300
C 	C 	0.95060 0.98490 0.49320 0.02600
C 	C 	0.90040 0.96350 0.48800 0.05700
C 	C 	0.86170 0.97970 0.51710 -0.10000
H 	H 	0.86600 0.00660 0.53780 0.04600
C 	C 	0.81640 0.95540 0.51480 0.05200
H 	H 	0.79060 0.96660 0.53450 -0.00600
C 	C 	0.84500 0.90200 0.45680 0.07100
H 	H 	0.83920 0.87590 0.43540 -0.01500
C 	C 	0.89170 0.92370 0.45710 -0.13600
H 	H 	0.91670 0.91180 0.43700 0.07900
N 	N 	0.26230 0.83150 0.93970 -0.24400
N 	N 	0.33340 0.55810 0.73550 -0.24400
C 	C 	0.28300 0.85430 0.90100 0.08100
H 	H 	0.30030 0.88370 0.90620 -0.01600
C 	C 	0.27990 0.83610 0.85440 -0.15600
H 	H 	0.29440 0.85310 0.82860 0.08700
C 	C 	0.25450 0.79150 0.84650 0.09200
C 	C 	0.23570 0.76680 0.88640 -0.16300
H 	H 	0.22060 0.73600 0.88280 0.08400
C 	C 	0.23960 0.78850 0.93200 0.08700
H 	H 	0.22570 0.77210 0.95840 -0.01900
C 	C 	0.25060 0.77030 0.79740 -0.02100
C 	C 	0.26470 0.72140 0.78900 -0.05700
H 	H 	0.27420 0.70200 0.81530 0.04900
C 	C 	0.26510 0.70060 0.74320 -0.02100
C 	C 	0.28650 0.65040 0.73800 0.09200
C 	C 	0.27030 0.61170 0.76710 -0.16200
H 	H 	0.24340 0.61600 0.78780 0.08300
C 	C 	0.29460 0.56640 0.76480 0.08100
H 	H 	0.28340 0.54060 0.78450 -0.02000
C 	C 	0.34800 0.59500 0.70680 0.08400
H 	H 	0.37410 0.58920 0.68540 -0.01900
C 	C 	0.32630 0.64170 0.70710 -0.16100
H 	H 	0.33820 0.66670 0.68700 0.08600
N 	N 	0.76230 0.33150 0.43970 -0.25000
N 	N 	0.83340 0.05810 0.23550 -0.24600
C 	C 	0.78300 0.35430 0.40100 0.07900
H 	H 	0.80030 0.38370 0.40620 -0.02000
C 	C 	0.77990 0.33610 0.35440 -0.15700
H 	H 	0.79440 0.35310 0.32860 0.08500
C 	C 	0.75450 0.29150 0.34650 0.09100
C 	C 	0.73570 0.26680 0.38640 -0.16500
H 	H 	0.72060 0.23600 0.38280 0.08200
C 	C 	0.73960 0.28850 0.43200 0.08600
H 	H 	0.72570 0.27210 0.45840 -0.02500
C 	C 	0.75060 0.27030 0.29740 -0.02200
C 	C 	0.76470 0.22140 0.28900 -0.05700
H 	H 	0.77420 0.20200 0.31530 0.04800
C 	C 	0.76510 0.20060 0.24320 -0.02200
C 	C 	0.78650 0.15040 0.23800 0.09100
C 	C 	0.77030 0.11170 0.26710 -0.16400
H 	H 	0.74340 0.11600 0.28780 0.08000
C 	C 	0.79460 0.06640 0.26480 0.08000
H 	H 	0.78340 0.04060 0.28450 -0.02500
C 	C 	0.84800 0.09500 0.20680 0.08200
H 	H 	0.87410 0.08920 0.18540 -0.02200
C 	C 	0.82630 0.14170 0.20710 -0.16100
H 	H 	0.83820 0.16670 0.18700 0.08500
N 	N 	0.23770 0.16850 0.43970 -0.25000
N 	N 	0.16660 0.44190 0.23550 -0.24400
C 	C 	0.21700 0.14570 0.40100 0.07900
H 	H 	0.19970 0.11630 0.40620 -0.02200
C 	C 	0.22010 0.16390 0.35440 -0.15700
H 	H 	0.20560 0.14690 0.32860 0.08400
C 	C 	0.24550 0.20850 0.34650 0.09100
C 	C 	0.26430 0.23320 0.38640 -0.16500
H 	H 	0.27940 0.26400 0.38280 0.08200
C 	C 	0.26040 0.21150 0.43200 0.08600
H 	H 	0.27430 0.22790 0.45840 -0.02500
C 	C 	0.24940 0.22970 0.29740 -0.02200
C 	C 	0.23530 0.27860 0.28900 -0.05700
H 	H 	0.22580 0.29800 0.31530 0.04800
C 	C 	0.23490 0.29940 0.24320 -0.02100
C 	C 	0.21350 0.34960 0.23800 0.09100
C 	C 	0.22970 0.38830 0.26710 -0.16200
H 	H 	0.25660 0.38400 0.28780 0.08100
C 	C 	0.20540 0.43360 0.26480 0.08000
H 	H 	0.21660 0.45940 0.28450 -0.02000
C 	C 	0.15200 0.40500 0.20680 0.08300
H 	H 	0.12590 0.41080 0.18540 -0.02000
C 	C 	0.17370 0.35830 0.20710 -0.16000
H 	H 	0.16180 0.33330 0.18700 0.08500
N 	N 	0.73770 0.66850 0.93970 -0.24400
N 	N 	0.66660 0.94190 0.73550 -0.23900
C 	C 	0.71700 0.64570 0.90100 0.08100
H 	H 	0.69970 0.61630 0.90620 -0.01800
C 	C 	0.72010 0.66390 0.85440 -0.15600
H 	H 	0.70560 0.64690 0.82860 0.08600
C 	C 	0.74550 0.70850 0.84650 0.09100
C 	C 	0.76430 0.73320 0.88640 -0.16300
H 	H 	0.77940 0.76400 0.88280 0.08500
C 	C 	0.76040 0.71150 0.93200 0.08800
H 	H 	0.77430 0.72790 0.95840 -0.01800
C 	C 	0.74940 0.72970 0.79740 -0.02100
C 	C 	0.73530 0.77860 0.78900 -0.05700
H 	H 	0.72580 0.79800 0.81530 0.05000
C 	C 	0.73490 0.79940 0.74320 -0.02000
C 	C 	0.71350 0.84960 0.73800 0.09100
C 	C 	0.72970 0.88830 0.76710 -0.16100
H 	H 	0.75660 0.88400 0.78780 0.08400
C 	C 	0.70540 0.93360 0.76480 0.08200
H 	H 	0.71660 0.95940 0.78450 -0.01500
C 	C 	0.65200 0.90500 0.70680 0.08400
H 	H 	0.62590 0.91080 0.68540 -0.01700
C 	C 	0.67370 0.85830 0.70710 -0.16000
H 	H 	0.66180 0.83330 0.68700 0.08600
Cu	Cu	0.75000 0.37085 0.50000 0.85600
Cu	Cu	0.25000 0.87085 -0.00000 0.84600
Cu	Cu	0.75000 0.62915 -0.00000 0.84600
Cu	Cu	0.25000 0.12915 0.50000 0.85500
Cu	Cu	0.87915 0.50000 0.75000 0.85600
Cu	Cu	0.37915 0.00000 0.25000 0.84800
Cu	Cu	0.62085 0.50000 0.25000 0.85500
Cu	Cu	0.12085 0.00000 0.75000 0.84800
Cu	Cu	0.25000 0.62915 0.50000 0.85600
Cu	Cu	0.75000 0.12915 -0.00000 0.84600
Cu	Cu	0.25000 0.37085 -0.00000 0.84600
Cu	Cu	0.75000 0.87085 0.50000 0.85600
Cu	Cu	0.12085 0.50000 0.25000 0.85500
Cu	Cu	0.62085 0.00000 0.75000 0.84800
Cu	Cu	0.37915 0.50000 0.75000 0.85600
Cu	Cu	0.87915 0.00000 0.25000 0.84800
