data_crystal

_cell_length_a 65.15800
_cell_length_b 65.15790
_cell_length_c 65.15790
_cell_angle_alpha 109.47100
_cell_angle_beta  109.47100
_cell_angle_gamma 109.47100

_symmetry_space_group_name_	'P 1'
_symmetry_space_group_name_H-M	'P 1'

loop_
_symmetry_equiv_pos_as_xyz
  x,y,z

loop_
_atom_site_label
_atom_site_type_symbol
_atom_site_fract_x
_atom_site_fract_y
_atom_site_fract_z
_atom_site_charge
Zn	Zn	0.58441 0.30649 0.25934 1.20800
Zn	Zn	0.56695 0.35176 0.16931 1.22500
Zn	Zn	0.41559 0.69351 0.74066 1.20800
Zn	Zn	0.39764 0.83069 0.18245 1.22500
Zn	Zn	0.08441 0.82507 0.27792 1.20800
Zn	Zn	0.68245 0.28481 0.85176 1.22500
Zn	Zn	0.68245 0.39764 0.33069 1.22500
Zn	Zn	0.32507 0.58441 0.77792 1.20800
Zn	Zn	0.60236 0.16931 0.81755 1.22500
Zn	Zn	0.24066 0.82507 0.54715 1.20800
Zn	Zn	0.24066 0.41559 0.19351 1.20800
Zn	Zn	0.17493 0.95285 0.25934 1.20800
Zn	Zn	0.95285 0.19351 0.77792 1.20800
Zn	Zn	0.75934 0.58441 0.80649 1.20800
Zn	Zn	0.28481 0.93305 0.60236 1.22500
Zn	Zn	0.25934 0.80649 0.58441 1.20800
Zn	Zn	0.35176 0.66931 0.06695 1.22500
Zn	Zn	0.83069 0.68245 0.89764 1.22500
Zn	Zn	0.06695 0.89764 0.21519 1.22500
Zn	Zn	0.91559 0.17493 0.72208 1.20800
Zn	Zn	0.93305 0.10236 0.78481 1.22500
Zn	Zn	0.16931 0.31755 0.10236 1.22500
Zn	Zn	0.66931 0.10236 0.31755 1.22500
Zn	Zn	0.30649 0.54715 0.72208 1.20800
Zn	Zn	0.72208 0.67493 0.91559 1.20800
Zn	Zn	0.78481 0.18245 0.35176 1.22500
Zn	Zn	0.31755 0.71519 0.14824 1.22500
Zn	Zn	0.54715 0.22208 0.80649 1.20800
Zn	Zn	0.54715 0.32507 0.24066 1.20800
Zn	Zn	0.39764 0.56695 0.71519 1.22500
Zn	Zn	0.27792 0.32507 0.08441 1.20800
Zn	Zn	0.69351 0.45285 0.27792 1.20800
Zn	Zn	0.22208 0.91559 0.67493 1.20800
Zn	Zn	0.25934 0.45285 0.17493 1.20800
Zn	Zn	0.33069 0.43305 0.14824 1.22500
Zn	Zn	0.74066 0.54715 0.82507 1.20800
Zn	Zn	0.77792 0.08441 0.32507 1.20800
Zn	Zn	0.93305 0.83069 0.64824 1.22500
Zn	Zn	0.08441 0.25934 0.30649 1.20800
Zn	Zn	0.64824 0.33069 0.93305 1.22500
Zn	Zn	0.56695 0.21519 0.89764 1.22500
Zn	Zn	0.06695 0.16931 0.35176 1.22500
Zn	Zn	0.85176 0.06695 0.66931 1.22500
Zn	Zn	0.33069 0.89764 0.68245 1.22500
Zn	Zn	0.66931 0.56695 0.85176 1.22500
Zn	Zn	0.82507 0.77792 0.58441 1.20800
Zn	Zn	0.74066 0.19351 0.41559 1.20800
Zn	Zn	0.17493 0.22208 0.41559 1.20800
Zn	Zn	0.19351 0.91559 0.24066 1.20800
Zn	Zn	0.81755 0.66931 0.60236 1.22500
Zn	Zn	0.21519 0.81755 0.64824 1.22500
Zn	Zn	0.19351 0.27792 0.45285 1.20800
Zn	Zn	0.67493 0.25934 0.95285 1.20800
Zn	Zn	0.60236 0.43305 0.28481 1.22500
Zn	Zn	0.30649 0.75934 0.08441 1.20800
Zn	Zn	0.71519 0.06695 0.39764 1.22500
Zn	Zn	0.35176 0.68245 0.78481 1.22500
Zn	Zn	0.22208 0.30649 0.04715 1.20800
Zn	Zn	0.16931 0.85176 0.56695 1.22500
Zn	Zn	0.69351 0.24066 0.91559 1.20800
Zn	Zn	0.32507 0.74066 0.04715 1.20800
Zn	Zn	0.80649 0.72208 0.54715 1.20800
Zn	Zn	0.27792 0.95285 0.69351 1.20800
Zn	Zn	0.10236 0.81755 0.16931 1.22500
Zn	Zn	0.67493 0.41559 0.22208 1.20800
Zn	Zn	0.75934 0.17493 0.45285 1.20800
Zn	Zn	0.18245 0.33069 0.39764 1.22500
Zn	Zn	0.72208 0.04715 0.30649 1.20800
Zn	Zn	0.89764 0.71519 0.56695 1.22500
Zn	Zn	0.41559 0.72208 0.17493 1.20800
Zn	Zn	0.21519 0.39764 0.06695 1.22500
Zn	Zn	0.58441 0.27792 0.82507 1.20800
Zn	Zn	0.85176 0.78481 0.68245 1.22400
Zn	Zn	0.95285 0.75934 0.67493 1.20700
Zn	Zn	0.45285 0.67493 0.75934 1.20700
Zn	Zn	0.82507 0.04715 0.74066 1.20700
Zn	Zn	0.10236 0.28481 0.43305 1.22400
Zn	Zn	0.28481 0.35176 0.18245 1.22400
Zn	Zn	0.04715 0.80649 0.22208 1.20700
Zn	Zn	0.14824 0.21519 0.31755 1.22400
Zn	Zn	0.14824 0.93305 0.33069 1.22400
Zn	Zn	0.91559 0.74066 0.69351 1.20700
Zn	Zn	0.83069 0.14824 0.43305 1.22400
Zn	Zn	0.80649 0.08441 0.75934 1.20700
Zn	Zn	0.64824 0.31755 0.21519 1.22400
Zn	Zn	0.04715 0.24066 0.32507 1.20700
Zn	Zn	0.78481 0.60236 0.93305 1.22400
Zn	Zn	0.18245 0.85176 0.28481 1.22400
Zn	Zn	0.77792 0.69351 0.95285 1.20700
Zn	Zn	0.43305 0.78481 0.10236 1.22400
Zn	Zn	0.81755 0.14824 0.71519 1.22400
Zn	Zn	0.31755 0.60236 0.66931 1.22400
Zn	Zn	0.45285 0.77792 0.19351 1.20700
Zn	Zn	0.89764 0.18245 0.83069 1.22400
Zn	Zn	0.43305 0.64824 0.83069 1.22400
Zn	Zn	0.71519 0.64824 0.81755 1.22400
H 	H 	0.80240 0.67470 0.66450 -0.09300
H 	H 	0.35440 0.79530 0.17690 0.17200
H 	H 	0.29220 0.50750 0.13650 -0.01400
H 	H 	0.33230 0.02680 0.64150 -0.09000
H 	H 	0.99710 0.20260 0.41790 0.13200
H 	H 	0.22070 0.74120 0.64150 -0.01600
H 	H 	0.57920 0.35850 0.09970 -0.01700
H 	H 	0.49710 0.41790 0.20260 0.13200
H 	H 	0.81200 0.87280 0.58860 0.11500
H 	H 	0.68650 0.41720 0.16350 -0.00800
H 	H 	0.02050 0.74120 0.09970 -0.01600
H 	H 	0.13550 0.30310 0.34220 -0.02100
H 	H 	0.20550 0.78470 0.20260 0.13200
H 	H 	0.47350 0.37190 0.16760 0.19100
H 	H 	0.08280 0.81350 0.33650 -0.00800
H 	H 	0.87190 0.97350 0.66760 0.19100
H 	H 	0.97320 0.85850 0.16770 -0.09000
H 	H 	0.05910 0.85440 0.17750 0.17200
H 	H 	0.57810 0.30450 0.11520 -0.02200
H 	H 	0.72070 0.64150 0.74120 -0.01600
H 	H 	0.62770 0.30240 0.13790 -0.09200
H 	H 	0.67050 0.10710 0.80180 0.19700
H 	H 	0.86210 0.66450 0.98980 -0.09200
H 	H 	0.16020 0.32950 0.42850 0.15800
H 	H 	0.70130 0.24600 0.33870 0.12200
H 	H 	0.82530 0.69760 0.83550 -0.09300
H 	H 	0.16930 0.90100 0.32950 0.15800
H 	H 	0.75370 0.23070 0.91720 -0.00800
H 	H 	0.23070 0.41720 0.25370 -0.00800
H 	H 	0.30180 0.63130 0.19470 0.19700
H 	H 	0.79330 0.65780 0.96090 -0.02100
H 	H 	0.52680 0.83230 0.14150 -0.09000
H 	H 	0.00290 0.79740 0.58210 0.13200
H 	H 	0.80590 0.60160 0.47350 0.19100
H 	H 	0.11470 0.80550 0.47320 -0.09000
H 	H 	0.82950 0.19820 0.89290 0.19700
H 	H 	0.64150 0.24120 0.22070 -0.01600
H 	H 	0.12810 0.02650 0.33240 0.19100
H 	H 	0.17050 0.33980 0.07150 0.15800
H 	H 	0.13790 0.33550 0.01020 -0.09200
H 	H 	0.45530 0.09270 0.75400 0.12200
H 	H 	0.70470 0.14560 0.32310 0.17200
H 	H 	0.65570 0.28470 0.29220 -0.01400
H 	H 	0.68650 0.26930 0.02300 -0.00800
H 	H 	0.79330 0.13550 0.33240 -0.02100
H 	H 	0.57920 0.58210 0.78470 0.13200
H 	H 	0.19080 0.80550 0.33230 -0.09000
H 	H 	0.26830 0.42850 0.09900 0.15800
H 	H 	0.28470 0.79220 0.15570 -0.01400
H 	H 	0.98980 0.16450 0.86210 -0.09200
H 	H 	0.30240 0.66450 0.67470 -0.09300
H 	H 	0.58530 0.24550 0.02020 0.13400
H 	H 	0.28470 0.49250 0.62900 -0.01400
H 	H 	0.31350 0.58280 0.83650 -0.00800
H 	H 	0.27660 0.56080 0.18800 0.11500
H 	H 	0.30530 0.69820 0.86870 0.19700
H 	H 	0.20430 0.87190 0.39840 0.19100
H 	H 	0.19690 0.83240 0.53910 -0.02100
H 	H 	0.58860 0.21580 0.27660 0.11500
H 	H 	0.88350 0.06940 0.76890 -0.03800
H 	H 	0.19690 0.36450 0.15780 -0.02100
H 	H 	0.19450 0.02680 0.38530 -0.09000
H 	H 	0.09900 0.17050 0.33070 0.15800
H 	H 	0.22070 0.47950 0.07920 -0.01700
H 	H 	0.11460 0.23110 0.30050 -0.03800
H 	H 	0.50750 0.87100 0.21530 -0.01400
H 	H 	0.25450 0.33980 0.27470 0.13400
H 	H 	0.30310 0.84220 0.63550 -0.02100
H 	H 	0.34430 0.62900 0.13650 -0.01400
H 	H 	0.30310 0.46090 0.16760 -0.02100
H 	H 	0.26890 0.88350 0.56940 -0.03800
H 	H 	0.91140 0.72340 0.78420 0.11500
H 	H 	0.19470 0.13130 0.30180 0.19700
H 	H 	0.66020 0.42850 0.32950 0.15800
H 	H 	0.02650 0.83240 0.62810 0.19100
H 	H 	0.60160 0.62810 0.79570 0.19100
H 	H 	0.67470 0.51020 0.87230 -0.09200
H 	H 	0.42080 0.00290 0.70550 0.13200
H 	H 	0.47350 0.10160 0.80590 0.19100
H 	H 	0.36450 0.70670 0.16760 -0.02100
H 	H 	0.52020 0.93490 0.27470 0.13400
H 	H 	0.93660 0.10710 0.30530 0.19700
H 	H 	0.16450 0.80240 0.17470 -0.09300
H 	H 	0.83980 0.67050 0.57150 0.15800
H 	H 	0.47950 0.57920 0.72070 -0.01700
H 	H 	0.22530 0.47980 0.56510 0.13400
H 	H 	0.74550 0.08530 0.52020 0.13400
H 	H 	0.55910 0.38160 0.20470 0.17200
H 	H 	0.93490 0.77470 0.02020 0.13400
H 	H 	0.61470 0.47320 0.80550 -0.09000
H 	H 	0.92190 0.88480 0.69550 -0.02200
H 	H 	0.44090 0.61840 0.79530 0.17200
H 	H 	0.93060 0.19950 0.81410 -0.03800
H 	H 	0.70670 0.66760 0.86450 -0.02100
H 	H 	0.72340 0.43920 0.81200 0.11500
H 	H 	0.92080 0.02050 0.77930 -0.01700
H 	H 	0.36210 0.37230 0.19760 -0.09200
H 	H 	0.06940 0.26890 0.38350 -0.03800
H 	H 	0.14150 0.22070 0.24120 -0.01600
H 	H 	0.66760 0.30310 0.96090 -0.02100
H 	H 	0.57920 0.22070 0.97950 -0.01700
H 	H 	0.63650 0.34430 0.12900 -0.01400
H 	H 	0.62810 0.29570 0.10160 0.19100
H 	H 	0.16930 0.26830 0.33980 0.15800
H 	H 	0.41790 0.71530 0.92080 0.13200
H 	H 	0.66930 0.33980 0.26830 0.15800
H 	H 	0.29220 0.78470 0.65570 -0.01400
H 	H 	0.64560 0.44090 0.32250 0.17200
H 	H 	0.16760 0.20670 0.36450 -0.02100
H 	H 	0.06940 0.80050 0.18590 -0.03800
H 	H 	0.88530 0.69080 0.85850 -0.09000
H 	H 	0.16770 0.35850 0.97320 -0.09000
H 	H 	0.81350 0.97700 0.73070 -0.00800
H 	H 	0.16350 0.91720 0.68650 -0.00800
H 	H 	0.47980 0.41470 0.25450 0.13400
H 	H 	0.32530 0.83550 0.69760 -0.09300
H 	H 	0.29870 0.75400 0.66130 0.12200
H 	H 	0.62720 0.68800 0.91140 0.11500
H 	H 	0.90030 0.75880 0.97950 -0.01600
H 	H 	0.80920 0.19450 0.66770 -0.09000
H 	H 	0.18800 0.06080 0.27660 0.11500
H 	H 	0.99710 0.79450 0.07920 0.13200
H 	H 	0.41470 0.66020 0.93490 0.13400
H 	H 	0.12810 0.10160 0.29570 0.19100
H 	H 	0.24120 0.52050 0.59970 -0.01600
H 	H 	0.66760 0.19410 0.29570 0.19100
H 	H 	0.12900 0.28470 0.99250 -0.01400
H 	H 	0.83650 0.75370 0.02300 -0.00800
H 	H 	0.25400 0.45530 0.59270 0.12200
H 	H 	0.33230 0.30550 0.19080 -0.09000
H 	H 	0.74600 0.20130 0.83870 0.12200
H 	H 	0.59970 0.02050 0.24120 -0.01600
H 	H 	0.90730 0.74600 0.04470 0.12200
H 	H 	0.19410 0.39840 0.52650 0.19100
H 	H 	0.41790 0.70260 0.99710 0.13200
H 	H 	0.68800 0.27660 0.06080 0.11500
H 	H 	0.19450 0.16770 0.30920 -0.09000
H 	H 	0.30050 0.56940 0.68590 -0.03800
H 	H 	0.69450 0.38530 0.02680 -0.09000
H 	H 	0.52650 0.62810 0.83240 0.19100
H 	H 	0.95530 0.75400 0.09270 0.12200
H 	H 	0.64560 0.20470 0.82310 0.17200
H 	H 	0.80310 0.16760 0.46090 -0.02100
H 	H 	0.70470 0.55910 0.88160 0.17200
H 	H 	0.73070 0.25370 0.41720 -0.00800
H 	H 	0.62810 0.33240 0.02650 0.19100
H 	H 	0.07920 0.97950 0.22070 -0.01700
H 	H 	0.19760 0.32530 0.33550 -0.09300
H 	H 	0.06080 0.77660 0.68800 0.11500
H 	H 	0.11460 0.88350 0.31410 -0.03800
H 	H 	0.62900 0.99250 0.28470 -0.01400
H 	H 	0.26930 0.74630 0.58280 -0.00800
H 	H 	0.30450 0.68930 0.72640 -0.02200
H 	H 	0.20130 0.33870 0.24600 0.12200
H 	H 	0.47700 0.16350 0.74630 -0.00800
H 	H 	0.92080 0.21530 0.41790 0.13200
H 	H 	0.70780 0.21530 0.34430 -0.01400
H 	H 	0.35850 0.75880 0.77930 -0.01600
H 	H 	0.46290 0.57810 0.77360 -0.02200
H 	H 	0.93920 0.22340 0.31200 0.11500
H 	H 	0.39840 0.37190 0.20430 0.19100
H 	H 	0.29330 0.33240 0.13550 -0.02100
H 	H 	0.30180 0.67050 0.60710 0.19700
H 	H 	0.22530 0.74550 0.16020 0.13400
H 	H 	0.96090 0.15780 0.79330 -0.02100
H 	H 	0.35850 0.59970 0.07920 -0.01700
H 	H 	0.41720 0.66350 0.18650 -0.00800
H 	H 	0.17750 0.35440 0.05910 0.17200
H 	H 	0.25450 0.91470 0.47980 0.13400
H 	H 	0.29450 0.49710 0.57920 0.13200
H 	H 	0.56940 0.18590 0.80050 -0.03800
H 	H 	0.69690 0.15780 0.36450 -0.02100
H 	H 	0.63790 0.01020 0.33550 -0.09200
H 	H 	0.33980 0.56510 0.08530 0.13400
H 	H 	0.37100 0.00750 0.71530 -0.01400
H 	H 	0.90100 0.82950 0.66930 0.15800
H 	H 	0.59270 0.95530 0.25400 0.12200
H 	H 	0.69690 0.53910 0.83240 -0.02100
H 	H 	0.10710 0.30180 0.17050 0.19700
H 	H 	0.57810 0.27360 0.96290 -0.02200
H 	H 	0.72640 0.53710 0.92190 -0.02200
H 	H 	0.29530 0.44090 0.11840 0.17200
H 	H 	0.14150 0.92080 0.40030 -0.01700
H 	H 	0.30590 0.83240 0.20430 0.19100
H 	H 	0.37190 0.70430 0.89840 0.19100
H 	H 	0.32950 0.92850 0.66020 0.15800
H 	H 	0.02020 0.74550 0.58530 0.13400
H 	H 	0.73110 0.61460 0.80050 -0.03800
H 	H 	0.38530 0.85850 0.69080 -0.09000
H 	H 	0.29740 0.50290 0.08210 0.13200
H 	H 	0.22340 0.81200 0.43920 0.11500
H 	H 	0.67690 0.32250 0.88160 0.17200
H 	H 	0.61650 0.23110 0.93060 -0.03800
H 	H 	0.63550 0.34220 0.30310 -0.02100
H 	H 	0.85850 0.66770 0.47320 -0.09000
H 	H 	0.69820 0.32950 0.39290 0.19700
H 	H 	0.33240 0.80590 0.70430 0.19100
H 	H 	0.58530 0.33980 0.06510 0.13400
H 	H 	0.77360 0.07810 0.46290 -0.02200
H 	H 	0.91720 0.73070 0.75370 -0.00800
H 	H 	0.80450 0.07810 0.61520 -0.02200
H 	H 	0.25370 0.33650 0.52300 -0.00800
H 	H 	0.66020 0.22530 0.24550 0.13400
H 	H 	0.65780 0.46090 0.29330 -0.02100
H 	H 	0.66130 0.40730 0.86260 0.12200
H 	H 	0.56510 0.58530 0.83980 0.13400
H 	H 	0.89840 0.69410 0.02650 0.19100
H 	H 	0.88540 0.11650 0.68590 -0.03800
H 	H 	0.91470 0.93490 0.66020 0.13400
H 	H 	0.26930 0.52300 0.18650 -0.00800
H 	H 	0.82950 0.63130 0.43660 0.19700
H 	H 	0.77660 0.58860 0.71580 0.11500
H 	H 	0.12770 0.13790 0.30240 -0.09200
H 	H 	0.58210 0.28470 0.07920 0.13200
H 	H 	0.54470 0.63740 0.79870 0.12200
H 	H 	0.36350 0.65570 0.87100 -0.01400
H 	H 	0.83240 0.03910 0.69690 -0.02100
H 	H 	0.75400 0.59270 0.45530 0.12200
H 	H 	0.87190 0.89840 0.70430 0.19100
H 	H 	0.67750 0.05910 0.35440 0.17200
H 	H 	0.58860 0.37280 0.81200 0.11500
H 	H 	0.42850 0.59900 0.76830 0.15800
H 	H 	0.61840 0.29530 0.94090 0.17200
H 	H 	0.22640 0.30450 0.18930 -0.02200
H 	H 	0.66930 0.32950 0.90100 0.15800
H 	H 	0.92850 0.76830 0.59900 0.15800
H 	H 	0.75880 0.47950 0.40030 -0.01600
H 	H 	0.83650 0.08280 0.31350 -0.00800
H 	H 	0.83240 0.79330 0.63550 -0.02100
H 	H 	0.16760 0.29570 0.19410 0.19100
H 	H 	0.86870 0.67050 0.06340 0.19700
H 	H 	0.06080 0.28420 0.87280 0.11500
H 	H 	0.36260 0.70130 0.95530 0.12200
H 	H 	0.25880 0.40030 0.47950 -0.01600
H 	H 	0.73110 0.11650 0.43060 -0.03800
H 	H 	0.33240 0.52650 0.12810 0.19100
H 	H 	0.06340 0.17050 0.86870 0.19700
H 	H 	0.85440 0.17690 0.79530 0.17200
H 	H 	0.80920 0.61470 0.64150 -0.09000
H 	H 	0.32310 0.67750 0.11840 0.17200
H 	H 	0.81410 0.11460 0.38350 -0.03800
H 	H 	0.15570 0.29220 0.28470 -0.01400
H 	H 	0.70130 0.45530 0.86260 0.12200
H 	H 	0.74120 0.59970 0.52050 -0.01600
H 	H 	0.32530 0.48980 0.12770 -0.09200
H 	H 	0.39290 0.56340 0.19470 0.19700
H 	H 	0.99250 0.78470 0.12900 -0.01400
H 	H 	0.97700 0.23070 0.31350 -0.00800
H 	H 	0.78470 0.70260 0.70550 0.13200
H 	H 	0.52300 0.68650 0.76930 -0.00800
H 	H 	0.86210 0.19760 0.37230 -0.09200
H 	H 	0.33550 0.82530 0.19760 -0.09300
H 	H 	0.78420 0.22340 0.91140 0.11500
H 	H 	0.97950 0.25880 0.90030 -0.01600
H 	H 	0.03910 0.84220 0.20670 -0.02100
H 	H 	0.79530 0.11840 0.44090 0.17200
H 	H 	0.38540 0.68590 0.11650 -0.03800
H 	H 	0.27470 0.43490 0.52020 0.13400
H 	H 	0.97350 0.16760 0.37190 0.19100
H 	H 	0.39840 0.02650 0.69410 0.19100
H 	H 	0.23110 0.43060 0.11650 -0.03800
H 	H 	0.30920 0.64150 0.61470 -0.09000
H 	H 	0.63740 0.33870 0.09270 0.12200
H 	H 	0.27360 0.46290 0.07810 -0.02200
H 	H 	0.61650 0.38540 0.18590 -0.03800
H 	H 	0.90100 0.07150 0.73170 0.15800
H 	H 	0.53710 0.11520 0.81070 -0.02200
H 	H 	0.52050 0.42080 0.27930 -0.01700
H 	H 	0.19080 0.38530 0.35850 -0.09000
H 	H 	0.66770 0.97320 0.35850 -0.09000
H 	H 	0.40030 0.97950 0.75880 -0.01600
H 	H 	0.58280 0.33650 0.81350 -0.00800
H 	H 	0.83240 0.12810 0.52650 0.19100
H 	H 	0.38160 0.70470 0.05910 0.17200
H 	H 	0.85850 0.77930 0.75880 -0.01600
H 	H 	0.19550 0.27360 0.31070 -0.02200
H 	H 	0.52680 0.69450 0.88530 -0.09000
H 	H 	0.94090 0.79530 0.61840 0.17200
H 	H 	0.33980 0.57150 0.67050 0.15800
H 	H 	0.48980 0.86210 0.16450 -0.09200
H 	H 	0.83230 0.19080 0.30550 -0.09000
H 	H 	0.20130 0.86260 0.45530 0.12200
H 	H 	0.26830 0.83980 0.66930 0.15800
H 	H 	0.13740 0.04470 0.29870 0.12200
H 	H 	0.77930 0.52050 0.92080 -0.01700
H 	H 	0.92080 0.90030 0.64150 -0.01700
H 	H 	0.71530 0.42080 0.91790 0.13200
H 	H 	0.83070 0.09900 0.67050 0.15800
H 	H 	0.46090 0.66760 0.80310 -0.02100
H 	H 	0.83230 0.64150 0.02680 -0.09000
H 	H 	0.58280 0.24630 0.26930 -0.00800
H 	H 	0.76890 0.56940 0.88350 -0.03800
H 	H 	0.55910 0.17750 0.85440 0.17200
H 	H 	0.19820 0.80530 0.36870 0.19700
H 	H 	0.19950 0.31410 0.43060 -0.03800
H 	H 	0.10710 0.80530 0.43660 0.19700
H 	H 	0.23070 0.81350 0.47700 -0.00800
H 	H 	0.40030 0.42080 0.14150 -0.01700
H 	H 	0.70550 0.20260 0.78470 0.13200
H 	H 	0.80180 0.60710 0.67050 0.19700
H 	H 	0.88480 0.68930 0.96290 -0.02200
H 	H 	0.97320 0.11470 0.30550 -0.09000
H 	H 	0.31410 0.93060 0.69950 -0.03800
H 	H 	0.48980 0.62770 0.82530 -0.09200
H 	H 	0.60710 0.17050 0.30180 0.19700
H 	H 	0.74550 0.66020 0.72530 0.13400
H 	H 	0.09900 0.92850 0.26830 0.15800
H 	H 	0.22640 0.92190 0.53710 -0.02200
H 	H 	0.29530 0.85440 0.67690 0.17200
H 	H 	0.30530 0.60710 0.93660 0.19700
H 	H 	0.16450 0.36210 0.48980 -0.09200
H 	H 	0.82950 0.16930 0.40100 0.15800
H 	H 	0.68800 0.41140 0.12720 0.11500
H 	H 	0.20670 0.86450 0.66760 -0.02100
H 	H 	0.68590 0.06940 0.30050 -0.03800
H 	H 	0.82530 0.12770 0.48980 -0.09200
H 	H 	0.89840 0.20430 0.37190 0.19100
H 	H 	0.93490 0.16020 0.41470 0.13400
H 	H 	0.56080 0.68800 0.77660 0.11500
H 	H 	0.97950 0.72070 0.57920 -0.01700
H 	H 	0.80050 0.68590 0.56940 -0.03800
H 	H 	0.89290 0.19470 0.56340 0.19700
H 	H 	0.47950 0.90030 0.25880 -0.01600
H 	H 	0.36870 0.06340 0.67050 0.19700
H 	H 	0.69550 0.31070 0.27360 -0.02200
H 	H 	0.67690 0.35440 0.29530 0.17200
H 	H 	0.43660 0.13130 0.82950 0.19700
H 	H 	0.41140 0.78420 0.72340 0.11500
H 	H 	0.63740 0.29870 0.04470 0.12200
H 	H 	0.12770 0.98980 0.32530 -0.09200
H 	H 	0.64150 0.40030 0.92080 -0.01700
H 	H 	0.33980 0.77470 0.75450 0.13400
H 	H 	0.07920 0.78470 0.58210 0.13200
H 	H 	0.08860 0.81200 0.37280 0.11500
H 	H 	0.59900 0.33070 0.17050 0.15800
H 	H 	0.20670 0.34220 0.03910 -0.02100
H 	H 	0.91140 0.18800 0.62720 0.11500
H 	H 	0.97350 0.80590 0.10160 0.19100
H 	H 	0.88540 0.76890 0.69950 -0.03800
H 	H 	0.38530 0.52680 0.19450 -0.09000
H 	H 	0.35440 0.55910 0.67750 0.17200
H 	H 	0.31350 0.73070 0.97700 -0.00800
H 	H 	0.13130 0.32950 0.93660 0.19700
H 	H 	0.06510 0.22530 0.97980 0.13400
H 	H 	0.70260 0.49710 0.91790 0.13200
H 	H 	0.14150 0.80920 0.11470 -0.09000
H 	H 	0.74630 0.66350 0.47700 -0.00800
H 	H 	0.19470 0.06340 0.39290 0.19700
H 	H 	0.38350 0.76890 0.06940 -0.03800
H 	H 	0.18930 0.38480 0.46290 -0.02200
H 	H 	0.02300 0.25370 0.83650 -0.00800
H 	H 	0.79220 0.13650 0.50750 -0.01400
H 	H 	0.03910 0.19690 0.33240 -0.02100
H 	H 	0.96290 0.18930 0.88480 -0.02200
H 	H 	0.81350 0.83650 0.58280 -0.00800
H 	H 	0.51020 0.37230 0.17470 -0.09200
H 	H 	0.83550 0.63790 0.51020 -0.09200
H 	H 	0.06510 0.83980 0.58530 0.13400
H 	H 	0.68590 0.61650 0.88540 -0.03800
H 	H 	0.07150 0.23170 0.40100 0.15800
H 	H 	0.66770 0.69450 0.80920 -0.09000
H 	H 	0.79530 0.67690 0.85440 0.17200
H 	H 	0.14560 0.82310 0.20470 0.17200
H 	H 	0.52050 0.09970 0.74120 -0.01600
H 	H 	0.87100 0.71530 0.00750 -0.01400
H 	H 	0.92080 0.70550 0.00290 0.13200
H 	H 	0.64150 0.11470 0.80920 -0.09000
H 	H 	0.32950 0.89290 0.19820 0.19700
H 	H 	0.16760 0.87190 0.47350 0.19100
H 	H 	0.41470 0.75450 0.97980 0.13400
H 	H 	0.91470 0.97980 0.75450 0.13400
H 	H 	0.67750 0.61840 0.82310 0.17200
H 	H 	0.57920 0.99710 0.29450 0.13200
H 	H 	0.75370 0.52300 0.33650 -0.00800
H 	H 	0.61460 0.31410 0.88350 -0.03800
H 	H 	0.85850 0.19080 0.88530 -0.09000
H 	H 	0.42080 0.41790 0.21530 0.13200
H 	H 	0.41140 0.62720 0.18800 0.11500
H 	H 	0.69950 0.26890 0.88540 -0.03800
H 	H 	0.56510 0.97980 0.22530 0.13400
H 	H 	0.83240 0.70430 0.80590 0.19100
H 	H 	0.28470 0.70550 0.70260 0.13200
H 	H 	0.25370 0.91720 0.23070 -0.00800
H 	H 	0.67050 0.59900 0.83070 0.15800
H 	H 	0.29450 0.79740 0.21530 0.13200
H 	H 	0.65570 0.37100 0.86350 -0.01400
H 	H 	0.13130 0.80180 0.69470 0.19700
H 	H 	0.24550 0.72530 0.66020 0.13400
H 	H 	0.93060 0.73110 0.61650 -0.03800
H 	H 	0.70780 0.49250 0.86350 -0.01400
H 	H 	0.56340 0.86870 0.17050 0.19700
H 	H 	0.12900 0.84430 0.63650 -0.01400
H 	H 	0.33650 0.31350 0.08280 -0.00800
H 	H 	0.73070 0.47700 0.81350 -0.00800
H 	H 	0.20550 0.42080 0.50290 0.13200
H 	H 	0.67050 0.56340 0.36870 0.19700
H 	H 	0.86260 0.90730 0.66130 0.12200
H 	H 	0.19950 0.88540 0.26890 -0.03800
H 	H 	0.70430 0.39840 0.87190 0.19100
H 	H 	0.47700 0.31350 0.23070 -0.00800
H 	H 	0.61520 0.57810 0.80450 -0.02200
H 	H 	0.76830 0.66930 0.83980 0.15800
H 	H 	0.99250 0.20780 0.36350 -0.01400
H 	H 	0.79740 0.08210 0.50290 0.13200
H 	H 	0.69760 0.33550 0.32530 -0.09300
H 	H 	0.80240 0.12770 0.63790 -0.09200
H 	H 	0.80530 0.86870 0.69820 0.19700
H 	H 	0.16020 0.91470 0.43490 0.13400
H 	H 	0.53710 0.42190 0.22640 -0.02200
H 	H 	0.57150 0.40100 0.23170 0.15800
H 	H 	0.47980 0.06510 0.72530 0.13400
H 	H 	0.68930 0.22640 0.80450 -0.02200
H 	H 	0.82310 0.70470 0.64560 0.17200
H 	H 	0.60710 0.43660 0.80530 0.19700
H 	H 	0.88530 0.19450 0.52680 -0.09000
H 	H 	0.86450 0.16760 0.70670 -0.02100
H 	H 	0.82250 0.64560 0.94090 0.17200
H 	H 	0.39290 0.82950 0.69820 0.19700
H 	H 	0.13550 0.83240 0.29330 -0.02100
H 	H 	0.79870 0.66130 0.75400 0.12200
H 	H 	0.16130 0.29870 0.25400 0.12200
H 	H 	0.12720 0.21580 0.93920 0.11500
H 	H 	0.40730 0.04470 0.74600 0.12200
H 	H 	0.93920 0.71580 0.12720 0.11500
H 	H 	0.77470 0.52020 0.43490 0.13400
H 	H 	0.90730 0.16130 0.36260 0.12200
H 	H 	0.80550 0.83230 0.69080 -0.09000
H 	H 	0.03710 0.22640 0.42190 -0.02200
H 	H 	0.66020 0.23170 0.83070 0.15800
H 	H 	0.36350 0.70780 0.99250 -0.01400
H 	H 	0.23170 0.90100 0.57150 0.15800
H 	H 	0.38480 0.96290 0.68930 -0.02200
H 	H 	0.32250 0.38160 0.17690 0.17200
H 	H 	0.17050 0.80180 0.10710 0.19700
H 	H 	0.29870 0.54470 0.13740 0.12200
H 	H 	0.79220 0.65570 0.78470 -0.01400
H 	H 	0.19820 0.39290 0.32950 0.19700
H 	H 	0.78470 0.08210 0.57920 0.13200
H 	H 	0.26890 0.38540 0.19950 -0.03800
H 	H 	0.77360 0.69550 0.81070 -0.02200
H 	H 	0.96090 0.80310 0.66760 -0.02100
H 	H 	0.75450 0.47980 0.91470 0.13400
H 	H 	0.66350 0.97700 0.24630 -0.00800
H 	H 	0.52650 0.89840 0.19410 0.19100
H 	H 	0.04470 0.24600 0.90730 0.12200
H 	H 	0.51020 0.13790 0.83550 -0.09200
H 	H 	0.20260 0.91790 0.49710 0.13200
H 	H 	0.69760 0.36210 0.87230 -0.09200
H 	H 	0.18590 0.88540 0.61650 -0.03800
H 	H 	0.92190 0.03710 0.72640 -0.02200
H 	H 	0.37100 0.36350 0.15570 -0.01400
H 	H 	0.27660 0.71580 0.58860 0.11500
H 	H 	0.19550 0.92190 0.38480 -0.02200
H 	H 	0.31410 0.38350 0.11460 -0.03800
H 	H 	0.46090 0.79330 0.15780 -0.02100
H 	H 	0.62720 0.93920 0.21580 0.11500
H 	H 	0.47320 0.30550 0.11470 -0.09000
H 	H 	0.74600 0.54470 0.40730 0.12200
H 	H 	0.11650 0.93060 0.23110 -0.03800
H 	H 	0.90030 0.14150 0.42080 -0.01700
H 	H 	0.69820 0.36870 0.80530 0.19700
H 	H 	0.67050 0.07150 0.33980 0.15800
H 	H 	0.71530 0.50750 0.37100 -0.01400
H 	H 	0.09970 0.24120 0.02050 -0.01600
H 	H 	0.30550 0.61470 0.97320 -0.09000
H 	H 	0.69950 0.43060 0.31410 -0.03800
H 	H 	0.27470 0.83980 0.25450 0.13400
H 	H 	0.80450 0.72640 0.68930 -0.02200
H 	H 	0.71580 0.62720 0.43920 0.11500
H 	H 	0.28420 0.91140 0.22340 0.11500
H 	H 	0.83870 0.13740 0.59270 0.12200
H 	H 	0.81070 0.19550 0.77360 -0.02200
H 	H 	0.50290 0.92080 0.20550 0.13200
H 	H 	0.27930 0.92080 0.52050 -0.01700
H 	H 	0.85440 0.67750 0.55910 0.17200
H 	H 	0.63130 0.93660 0.32950 0.19700
H 	H 	0.33240 0.63550 0.79330 -0.02100
H 	H 	0.16760 0.96090 0.30310 -0.02100
H 	H 	0.68930 0.46290 0.38480 -0.02200
H 	H 	0.32950 0.40100 0.16930 0.15800
H 	H 	0.45530 0.36260 0.20130 0.12200
H 	H 	0.06340 0.89290 0.69470 0.19700
H 	H 	0.73170 0.16020 0.33070 0.15800
H 	H 	0.50750 0.63650 0.79220 -0.01400
H 	H 	0.62770 0.32530 0.98980 -0.09200
H 	H 	0.17470 0.30240 0.16450 -0.09300
H 	H 	0.87100 0.15570 0.36350 -0.01400
H 	H 	0.31070 0.53710 0.61520 -0.02200
H 	H 	0.71530 0.20780 0.84430 -0.01400
H 	H 	0.17470 0.87230 0.51020 -0.09200
H 	H 	0.79450 0.21530 0.79740 0.13200
H 	H 	0.78470 0.15570 0.79220 -0.01400
H 	H 	0.98980 0.82530 0.62770 -0.09200
H 	H 	0.33070 0.67050 0.09900 0.15800
H 	H 	0.15570 0.86350 0.37100 -0.01400
H 	H 	0.71530 0.29450 0.29740 0.13200
H 	H 	0.87280 0.08860 0.31200 0.11500
H 	H 	0.34220 0.53910 0.70670 -0.02100
H 	H 	0.42850 0.82950 0.16020 0.15800
H 	H 	0.43660 0.30530 0.10710 0.19700
H 	H 	0.37280 0.06080 0.78420 0.11500
H 	H 	0.37230 0.69760 0.86210 -0.09200
H 	H 	0.86350 0.87100 0.65570 -0.01400
H 	H 	0.83980 0.16930 0.76830 0.15800
H 	H 	0.25400 0.79870 0.16130 0.12200
H 	H 	0.43920 0.31200 0.22340 0.11500
H 	H 	0.28470 0.57920 0.08210 0.13200
H 	H 	0.29570 0.60160 0.12810 0.19100
H 	H 	0.53910 0.20670 0.84220 -0.02100
H 	H 	0.02680 0.88530 0.69450 -0.09000
H 	H 	0.81410 0.69950 0.93060 -0.03800
H 	H 	0.80590 0.20430 0.83240 0.19100
H 	H 	0.37280 0.31200 0.08860 0.11500
H 	H 	0.81070 0.61520 0.53710 -0.02200
H 	H 	0.66130 0.25400 0.29870 0.12200
H 	H 	0.47320 0.16770 0.85850 -0.09000
H 	H 	0.70670 0.03910 0.34220 -0.02100
H 	H 	0.64150 0.52680 0.33230 -0.09000
H 	H 	0.84220 0.70670 0.53910 -0.02100
H 	H 	0.78470 0.62900 0.49250 -0.01400
H 	H 	0.83550 0.19760 0.82530 -0.09300
H 	H 	0.31200 0.58860 0.87280 0.11500
H 	H 	0.01020 0.17470 0.37230 -0.09200
H 	H 	0.89290 0.69820 0.82950 0.19700
H 	H 	0.58210 0.29740 0.00290 0.13200
H 	H 	0.09970 0.85850 0.57920 -0.01700
H 	H 	0.49250 0.12900 0.78470 -0.01400
H 	H 	0.36870 0.30530 0.19820 0.19700
H 	H 	0.36210 0.98980 0.66450 -0.09200
H 	H 	0.66450 0.48980 0.36210 -0.09200
H 	H 	0.30050 0.73110 0.11460 -0.03800
H 	H 	0.18930 0.80450 0.22640 -0.02200
H 	H 	0.80550 0.97320 0.61470 -0.09000
H 	H 	0.67470 0.16450 0.30240 -0.09300
H 	H 	0.69410 0.16760 0.79570 0.19100
H 	H 	0.65780 0.19690 0.86450 -0.02100
H 	H 	0.72530 0.16020 0.74550 0.13400
H 	H 	0.92850 0.16020 0.82950 0.15800
H 	H 	0.05910 0.20470 0.38160 0.17200
H 	H 	0.08210 0.00290 0.29740 0.13200
H 	H 	0.40100 0.66930 0.82950 0.15800
H 	H 	0.31200 0.72340 0.93920 0.11500
H 	H 	0.20780 0.86350 0.49250 -0.01400
H 	H 	0.01020 0.83550 0.13790 -0.09200
H 	H 	0.95530 0.20130 0.36260 0.12200
H 	H 	0.91720 0.18650 0.66350 -0.00800
H 	H 	0.79570 0.66760 0.69410 0.19100
H 	H 	0.57150 0.17050 0.83980 0.15800
H 	H 	0.23170 0.33070 0.16020 0.15800
H 	H 	0.41720 0.75370 0.73070 -0.00800
H 	H 	0.11840 0.94090 0.29530 0.17200
H 	H 	0.46290 0.88480 0.18930 -0.02200
H 	H 	0.83070 0.73170 0.66020 0.15800
H 	H 	0.08210 0.07920 0.28470 0.13200
H 	H 	0.31070 0.77360 0.19550 -0.02200
H 	H 	0.32250 0.94090 0.64560 0.17200
H 	H 	0.30590 0.47350 0.60160 0.19100
H 	H 	0.19410 0.79570 0.16760 0.19100
H 	H 	0.35850 0.88530 0.19080 -0.09000
H 	H 	0.77930 0.25880 0.35850 -0.01600
H 	H 	0.80310 0.63550 0.84220 -0.02100
H 	H 	0.32950 0.43660 0.63130 0.19700
H 	H 	0.75880 0.27930 0.85850 -0.01600
H 	H 	0.70260 0.20550 0.28470 0.13200
H 	H 	0.79870 0.13740 0.54470 0.12200
H 	H 	0.40100 0.73170 0.07150 0.15800
H 	H 	0.79740 0.71530 0.79450 0.13200
H 	H 	0.11520 0.80450 0.57810 -0.02200
H 	H 	0.30240 0.63790 0.12770 -0.09200
H 	H 	0.21580 0.77660 0.08860 0.11500
H 	H 	0.80180 0.19470 0.63130 0.19700
H 	H 	0.17690 0.29530 0.35440 0.17200
H 	H 	0.60160 0.97350 0.30590 0.19100
H 	H 	0.62900 0.63650 0.84430 -0.01400
H 	H 	0.00750 0.79220 0.63650 -0.01400
H 	H 	0.70550 0.50290 0.42080 0.13200
H 	H 	0.34430 0.71530 0.70780 -0.01400
H 	H 	0.86450 0.69690 0.65780 -0.02100
H 	H 	0.88350 0.81410 0.61460 -0.03800
H 	H 	0.24600 0.40730 0.54470 0.12200
H 	H 	0.87280 0.78420 0.06080 0.11500
H 	H 	0.56080 0.87280 0.28420 0.11500
H 	H 	0.83870 0.70130 0.74600 0.12200
H 	H 	0.66760 0.36450 0.20670 -0.02100
H 	H 	0.20260 0.28470 0.20550 0.13200
H 	H 	0.20780 0.34430 0.21530 -0.01400
H 	H 	0.59970 0.57920 0.85850 -0.01700
H 	H 	0.63650 0.29220 0.00750 -0.01400
H 	H 	0.70430 0.30590 0.33240 0.19100
H 	H 	0.82950 0.66020 0.92850 0.15800
H 	H 	0.76890 0.19950 0.38540 -0.03800
H 	H 	0.43490 0.41470 0.16020 0.13400
H 	H 	0.30550 0.69080 0.83230 -0.09000
H 	H 	0.18650 0.16350 0.41720 -0.00800
H 	H 	0.10160 0.30590 0.97350 0.19100
H 	H 	0.29740 0.79450 0.71530 0.13200
H 	H 	0.75450 0.27470 0.33980 0.13400
H 	H 	0.02300 0.76930 0.68650 -0.00800
H 	H 	0.42190 0.69550 0.88480 -0.02200
H 	H 	0.28420 0.37280 0.56080 0.11500
H 	H 	0.25880 0.85850 0.27930 -0.01600
H 	H 	0.02680 0.14150 0.83230 -0.09000
H 	H 	0.56340 0.69470 0.89290 0.19700
H 	H 	0.83980 0.08530 0.56510 0.13400
H 	H 	0.09270 0.25400 0.95530 0.12200
H 	H 	0.85850 0.07920 0.59970 -0.01700
H 	H 	0.72340 0.28420 0.41140 0.11500
H 	H 	0.34220 0.80310 0.13550 -0.02100
H 	H 	0.66760 0.47350 0.87190 0.19100
H 	H 	0.40730 0.36260 0.16130 0.12200
H 	H 	0.37190 0.66760 0.97350 0.19100
H 	H 	0.14560 0.32250 0.44090 0.17200
H 	H 	0.69450 0.30920 0.16770 -0.09000
H 	H 	0.84430 0.13650 0.62900 -0.01400
H 	H 	0.33550 0.51020 0.63790 -0.09200
H 	H 	0.14150 0.33230 0.52680 -0.09000
H 	H 	0.08860 0.27660 0.21580 0.11500
H 	H 	0.74630 0.08280 0.76930 -0.00800
H 	H 	0.17050 0.36870 0.56340 0.19700
H 	H 	0.18800 0.12720 0.41140 0.11500
H 	H 	0.76830 0.09900 0.42850 0.15800
H 	H 	0.76930 0.58280 0.74630 -0.00800
H 	H 	0.10160 0.79570 0.62810 0.19100
H 	H 	0.88160 0.82250 0.67690 0.17200
H 	H 	0.71580 0.08860 0.77660 0.11500
H 	H 	0.19760 0.87230 0.36210 -0.09200
H 	H 	0.88160 0.05910 0.70470 0.17200
H 	H 	0.79450 0.57920 0.49710 0.13200
H 	H 	0.77470 0.25450 0.83980 0.13400
H 	H 	0.69550 0.38480 0.92190 -0.02200
H 	H 	0.15780 0.86450 0.19690 -0.02100
H 	H 	0.69470 0.39290 0.06340 0.19700
H 	H 	0.11470 0.30920 0.14150 -0.09000
H 	H 	0.20470 0.32310 0.14560 0.17200
H 	H 	0.82310 0.11840 0.67750 0.17200
H 	H 	0.94090 0.14560 0.82250 0.17200
H 	H 	0.33870 0.59270 0.13740 0.12200
H 	H 	0.23110 0.80050 0.61460 -0.03800
H 	H 	0.08280 0.26930 0.24630 -0.00800
H 	H 	0.87230 0.86210 0.69760 -0.09200
H 	H 	0.07810 0.96290 0.27360 -0.02200
H 	H 	0.13740 0.09270 0.33870 0.12200
H 	H 	0.29330 0.96090 0.65780 -0.02100
H 	H 	0.29570 0.69410 0.66760 0.19100
H 	H 	0.21530 0.37100 0.50750 -0.01400
H 	H 	0.30450 0.61520 0.07810 -0.02200
H 	H 	0.02020 0.27470 0.93490 0.13400
H 	H 	0.21530 0.91790 0.42080 0.13200
H 	H 	0.24630 0.76930 0.08280 -0.00800
H 	H 	0.02650 0.19410 0.89840 0.19100
H 	H 	0.61520 0.03710 0.31070 -0.02200
H 	H 	0.33870 0.74600 0.70130 0.12200
H 	H 	0.00290 0.20550 0.92080 0.13200
H 	H 	0.11520 0.31070 0.03710 -0.02200
H 	H 	0.52020 0.58530 0.74550 0.13400
H 	H 	0.33240 0.69690 0.03910 -0.02100
H 	H 	0.04470 0.79870 0.63740 0.12200
H 	H 	0.59270 0.63740 0.83870 0.12200
H 	H 	0.73170 0.57150 0.90100 0.15800
H 	H 	0.18650 0.02300 0.26930 -0.00800
H 	H 	0.33980 0.76830 0.16930 0.15800
H 	H 	0.81200 0.93920 0.72340 0.11500
H 	H 	0.24600 0.83870 0.20130 0.12200
H 	H 	0.74120 0.14150 0.72070 -0.01600
H 	H 	0.49250 0.36350 0.20780 -0.01400
H 	H 	0.56940 0.38350 0.26890 -0.03800
H 	H 	0.37230 0.67470 0.01020 -0.09200
H 	H 	0.42190 0.72640 0.03710 -0.02200
H 	H 	0.76930 0.18650 0.52300 -0.00800
H 	H 	0.52300 0.83650 0.25370 -0.00800
H 	H 	0.86260 0.95530 0.70130 0.12200
H 	H 	0.16350 0.24630 0.97700 -0.00800
H 	H 	0.97980 0.25450 0.41470 0.13400
H 	H 	0.83980 0.75450 0.77470 0.13400
H 	H 	0.16020 0.24550 0.22530 0.13400
H 	H 	0.30920 0.66770 0.19450 -0.09000
H 	H 	0.80530 0.93660 0.60710 0.19700
H 	H 	0.13650 0.00750 0.29220 -0.01400
H 	H 	0.38540 0.69950 0.76890 -0.03800
H 	H 	0.00750 0.21530 0.87100 -0.01400
H 	H 	0.43060 0.81410 0.19950 -0.03800
H 	H 	0.33070 0.66020 0.73170 0.15800
H 	H 	0.13790 0.80240 0.62770 -0.09200
H 	H 	0.16770 0.80920 0.69450 -0.09000
H 	H 	0.79570 0.12810 0.60160 0.19100
H 	H 	0.43920 0.12720 0.71580 0.11500
H 	H 	0.36260 0.66130 0.90730 0.12200
H 	H 	0.43060 0.61650 0.73110 -0.03800
H 	H 	0.18590 0.30050 0.06940 -0.03800
H 	H 	0.88480 0.19550 0.42190 -0.02200
H 	H 	0.69410 0.52650 0.39840 0.19100
H 	H 	0.61460 0.30050 0.23110 -0.03800
H 	H 	0.59900 0.26830 0.92850 0.15800
H 	H 	0.12720 0.91140 0.68800 0.11500
H 	H 	0.97700 0.74630 0.16350 -0.00800
H 	H 	0.63130 0.69470 0.80180 0.19700
H 	H 	0.78420 0.56080 0.37280 0.11500
H 	H 	0.24120 0.72070 0.14150 -0.01600
H 	H 	0.97980 0.72530 0.06510 0.13400
H 	H 	0.82250 0.17690 0.38160 0.17200
H 	H 	0.08530 0.02020 0.24550 0.13400
H 	H 	0.69080 0.35850 0.38530 -0.09000
H 	H 	0.66350 0.68650 0.91720 -0.00800
H 	H 	0.63790 0.62770 0.80240 -0.09200
H 	H 	0.72530 0.56510 0.47980 0.13400
H 	H 	0.27930 0.35850 0.25880 -0.01600
H 	H 	0.66450 0.17470 0.80240 -0.09300
H 	H 	0.84220 0.13550 0.80310 -0.02100
H 	H 	0.07810 0.11520 0.30450 -0.02200
H 	H 	0.80050 0.11460 0.73110 -0.03800
H 	H 	0.93660 0.82950 0.13130 0.19700
H 	H 	0.27360 0.81070 0.69550 -0.02200
H 	H 	0.17690 0.88160 0.32250 0.17200
H 	H 	0.84430 0.70780 0.71530 -0.01400
H 	H 	0.87230 0.01020 0.67470 -0.09200
H 	H 	0.20430 0.33240 0.30590 0.19100
H 	H 	0.86870 0.19820 0.30530 0.19700
H 	H 	0.24550 0.52020 0.08530 0.13400
H 	H 	0.11840 0.17750 0.32310 0.17200
H 	H 	0.69470 0.30180 0.13130 0.19700
H 	H 	0.36450 0.65780 0.69690 -0.02100
H 	H 	0.91790 0.92080 0.71530 0.13200
H 	H 	0.16130 0.86260 0.40730 0.12200
H 	H 	0.49710 0.07920 0.79450 0.13200
H 	H 	0.38350 0.61460 0.81410 -0.03800
H 	H 	0.38480 0.42190 0.19550 -0.02200
H 	H 	0.72640 0.18930 0.30450 -0.02200
H 	H 	0.35850 0.47320 0.66770 -0.09000
H 	H 	0.16020 0.83070 0.23170 0.15800
H 	H 	0.07920 0.29450 0.99710 0.13200
H 	H 	0.53910 0.33240 0.19690 -0.02100
H 	H 	0.96290 0.77360 0.57810 -0.02200
H 	H 	0.50290 0.58210 0.79740 0.13200
H 	H 	0.09270 0.83870 0.63740 0.12200
H 	H 	0.43490 0.02020 0.77470 0.13400
H 	H 	0.44090 0.82250 0.14560 0.17200
H 	H 	0.75400 0.16130 0.79870 0.12200
H 	H 	0.02050 0.27930 0.42080 -0.01700
H 	H 	0.33650 0.02300 0.75370 -0.00800
H 	H 	0.66020 0.43490 0.91470 0.13400
H 	H 	0.13650 0.12900 0.34430 -0.01400
H 	H 	0.42080 0.64150 0.90030 -0.01700
H 	H 	0.61470 0.14150 0.30920 -0.09000
H 	H 	0.63550 0.29330 0.83240 -0.02100
H 	H 	0.69080 0.33230 0.80550 -0.09000
H 	H 	0.54470 0.90730 0.24600 0.12200
H 	H 	0.32310 0.64560 0.70470 0.17200
H 	H 	0.42080 0.77930 0.02050 -0.01700
H 	H 	0.24630 0.47700 0.66350 -0.00800
H 	H 	0.77660 0.18800 0.56080 0.11500
H 	H 	0.21580 0.43920 0.62720 0.11500
H 	H 	0.07150 0.83980 0.17050 0.15800
H 	H 	0.20470 0.88160 0.55910 0.17200
H 	H 	0.61840 0.32310 0.17750 0.17200
H 	H 	0.21530 0.84430 0.20780 -0.01400
H 	H 	0.07920 0.09970 0.35850 -0.01700
H 	H 	0.17050 0.83070 0.59900 0.15800
H 	H 	0.91790 0.99710 0.70260 0.13200
H 	H 	0.21530 0.29740 0.29450 0.13200
H 	H 	0.38160 0.67690 0.82250 0.17200
H 	H 	0.08530 0.06510 0.33980 0.13400
H 	H 	0.22340 0.41140 0.28420 0.11500
H 	H 	0.86350 0.99250 0.70780 -0.01400
H 	H 	0.03710 0.81070 0.11520 -0.02200
H 	H 	0.72070 0.07920 0.47950 -0.01700
H 	H 	0.15780 0.29330 0.46090 -0.02100
H 	H 	0.11650 0.18590 0.38540 -0.03800
H 	H 	0.17750 0.82310 0.61840 0.17200
C 	C 	0.90011 0.09463 0.72032 0.16000
C 	C 	0.83890 0.99510 0.64540 -0.44500
C 	C 	0.81450 0.20120 0.86290 0.36200
C 	C 	0.64540 0.49510 0.83890 -0.44500
C 	C 	0.72320 0.25400 0.83260 -0.29500
C 	C 	0.26800 0.87440 0.21160 0.18200
C 	C 	0.42140 0.75400 0.03080 -0.29500
C 	C 	0.75190 0.59560 0.51570 0.20400
C 	C 	0.61700 0.22280 0.91620 0.11200
C 	C 	0.34770 0.86610 0.68800 0.51800
C 	C 	0.10640 0.87440 0.66280 0.18200
C 	C 	0.73250 0.07690 0.44640 0.48000
C 	C 	0.72870 0.48770 0.91920 0.23400
C 	C 	0.21110 0.35790 0.22920 0.17600
C 	C 	0.11720 0.24177 0.41873 -0.06900
C 	C 	0.35260 0.64540 0.89300 -0.23400
C 	C 	0.65680 0.18340 0.29860 -0.45000
C 	C 	0.87240 0.77030 0.04990 -0.22500
C 	C 	0.39420 0.69340 0.77720 0.11200
C 	C 	0.92560 0.75770 0.00810 -0.26700
C 	C 	0.35790 0.62870 0.14680 0.17600
C 	C 	0.52660 0.64180 0.84320 -0.45000
C 	C 	0.82190 0.63390 0.98160 0.51800
C 	C 	0.19360 0.37450 0.34770 0.40900
C 	C 	0.74177 0.12457 0.32304 -0.06900
C 	C 	0.80950 0.08080 0.56850 0.23400
C 	C 	0.86950 0.15560 0.42310 0.48000
C 	C 	0.15560 0.92310 0.36950 0.48000
C 	C 	0.51230 0.58080 0.77130 0.23400
C 	C 	0.64210 0.37130 0.85320 0.17600
C 	C 	0.87440 0.16280 0.60640 0.18200
C 	C 	0.33410 0.49510 0.63660 0.39200
C 	C 	0.14540 0.29280 0.25240 -0.23400
C 	C 	0.19770 0.37880 0.33050 -0.46000
C 	C 	0.30660 0.72280 0.10580 0.11200
C 	C 	0.75040 0.66790 0.74230 -0.26700
C 	C 	0.24760 0.39300 0.54040 -0.23400
C 	C 	0.27680 0.74600 0.16740 -0.29500
C 	C 	0.86340 0.19750 0.35850 0.39200
C 	C 	0.47320 0.31910 0.12550 0.40900
C 	C 	0.49510 0.33890 0.14540 -0.44500
C 	C 	0.87450 0.69360 0.84770 0.40900
C 	C 	0.91920 0.93150 0.69050 0.23400
C 	C 	0.25240 0.45960 0.60700 -0.23400
C 	C 	0.18550 0.79880 0.13710 0.36200
C 	C 	0.17750 0.12760 0.39790 -0.22500
C 	C 	0.31910 0.69360 0.84590 0.40900
C 	C 	0.54830 0.86720 0.16950 -0.46000
C 	C 	0.38850 0.71500 0.72510 0.43800
C 	C 	0.86610 0.18800 0.84770 0.51800
C 	C 	0.75900 0.19050 0.77130 0.23400
C 	C 	0.97260 0.74800 0.14920 0.15600
C 	C 	0.27080 0.48190 0.62870 0.17600
C 	C 	0.22040 0.82250 0.45010 -0.22500
C 	C 	0.13390 0.32190 0.48160 0.51800
C 	C 	0.34370 0.59560 0.07990 0.20400
C 	C 	0.42010 0.65630 0.90440 0.20400
C 	C 	0.74230 0.16790 0.75040 -0.26700
C 	C 	0.34970 0.49510 0.65620 -0.44500
C 	C 	0.10940 0.83260 0.57860 -0.29500
C 	C 	0.65630 0.25190 0.23620 0.20400
C 	C 	0.47430 0.89530 0.20660 0.20300
C 	C 	0.79340 0.18870 0.76770 0.20300
C 	C 	0.14210 0.85320 0.37130 0.17600
C 	C 	0.88140 0.16130 0.64990 -0.24700
C 	C 	0.36610 0.84770 0.18800 0.51800
C 	C 	0.80250 0.66100 0.66590 0.39200
C 	C 	0.20720 0.85260 0.45960 -0.23400
C 	C 	0.41750 0.74960 0.99190 -0.26700
C 	C 	0.85790 0.14680 0.62870 0.17600
C 	C 	0.82021 0.72032 0.62569 0.16000
C 	C 	0.25770 0.83210 0.24960 -0.26700
C 	C 	0.58250 0.25040 0.00810 -0.26700
C 	C 	0.41873 0.74177 0.11720 -0.06900
C 	C 	0.33260 0.60940 0.07860 -0.29500
C 	C 	0.74100 0.51230 0.43150 0.23400
C 	C 	0.65410 0.68090 0.80640 0.40900
C 	C 	0.15030 0.34380 0.50490 -0.44500
C 	C 	0.85190 0.72340 0.55190 0.10000
C 	C 	0.31720 0.71527 0.07673 0.12200
C 	C 	0.85820 0.97340 0.65680 -0.45000
C 	C 	0.29920 0.91620 0.69340 0.11200
C 	C 	0.38300 0.60580 0.79920 0.11200
C 	C 	0.57860 0.33260 0.10940 -0.29500
C 	C 	0.55190 0.32850 0.20000 0.10000
C 	C 	0.85460 0.69350 0.84970 -0.44600
C 	C 	0.12457 0.30153 0.38280 -0.06900
C 	C 	0.35460 0.84970 0.69350 -0.44600
C 	C 	0.72040 0.45010 0.82250 -0.22500
C 	C 	0.75240 0.14540 0.79280 -0.23400
C 	C 	0.70120 0.38670 0.83830 0.36200
C 	C 	0.33890 0.69350 0.84380 -0.44500
C 	C 	0.77990 0.16130 0.51140 -0.24700
C 	C 	0.66280 0.37440 0.10640 0.18200
C 	C 	0.27130 0.75900 0.69050 0.23400
C 	C 	0.54040 0.89300 0.24760 -0.23400
C 	C 	0.63710 0.45160 0.83830 0.36200
C 	C 	0.83870 0.85010 0.61860 -0.24700
C 	C 	0.99510 0.83410 0.13660 0.39200
C 	C 	0.68110 0.30230 0.13280 -0.46000
C 	C 	0.39807 0.75953 0.18280 0.12200
C 	C 	0.82250 0.87240 0.60210 -0.22500
C 	C 	0.29910 0.71620 0.71830 -0.27500
C 	C 	0.74800 0.64920 0.47260 0.15600
C 	C 	0.18550 0.38670 0.54840 0.36200
C 	C 	0.25953 0.36146 0.07673 0.12200
C 	C 	0.67979 0.30548 0.90011 0.16000
C 	C 	0.12760 0.89790 0.67750 -0.22500
C 	C 	0.46920 0.89060 0.22320 -0.29500
C 	C 	0.61520 0.64180 0.79860 -0.45000
C 	C 	0.51140 0.85010 0.23150 -0.24700
C 	C 	0.49190 0.07440 0.74230 -0.26700
C 	C 	0.80230 0.18110 0.63280 -0.46000
C 	C 	0.83900 0.69750 0.83410 0.39200
C 	C 	0.31450 0.45160 0.61330 0.36200
C 	C 	0.33830 0.63710 0.95160 0.36200
C 	C 	0.45010 0.12760 0.72970 -0.22500
C 	C 	0.64540 0.39300 0.85260 -0.23400
C 	C 	0.16130 0.01140 0.27990 -0.24700
C 	C 	0.35080 0.02740 0.75200 0.15600
C 	C 	0.77720 0.19340 0.39420 0.11200
C 	C 	0.95160 0.81450 0.11330 0.36200
C 	C 	0.86950 0.71390 0.94640 0.48000
C 	C 	0.01810 0.78890 0.64680 0.17600
C 	C 	0.73150 0.51140 0.35010 -0.24700
C 	C 	0.32304 0.62457 0.74177 -0.06900
C 	C 	0.17810 0.36610 0.01840 0.51800
C 	C 	0.98430 0.24810 0.90440 0.20400
C 	C 	0.17150 0.22340 0.37150 0.10000
C 	C 	0.97340 0.15680 0.35820 -0.45000
C 	C 	0.22510 0.38850 0.21500 0.43800
C 	C 	0.64920 0.97260 0.24800 0.15600
C 	C 	0.80650 0.64540 0.65030 -0.44600
C 	C 	0.80650 0.16110 0.65620 -0.44500
C 	C 	0.63050 0.05360 0.28610 0.48000
C 	C 	0.34030 0.65230 0.01840 0.51800
C 	C 	0.27030 0.89790 0.22040 -0.22500
C 	C 	0.13050 0.84440 0.57690 0.48000
C 	C 	0.32340 0.59880 0.85080 0.15600
C 	C 	0.42140 0.66740 0.89060 -0.29500
C 	C 	0.75823 0.67696 0.87543 -0.06900
C 	C 	0.85460 0.16110 0.50490 -0.44500
C 	C 	0.10580 0.88300 0.29920 0.11200
C 	C 	0.72280 0.60580 0.80660 0.11200
C 	C 	0.66340 0.27490 0.98990 0.43800
C 	C 	0.35260 0.70720 0.95960 -0.23400
C 	C 	0.81890 0.95170 0.62120 -0.46000
C 	C 	0.91620 0.19340 0.79920 0.11200
C 	C 	0.97430 0.76770 0.57900 0.20300
C 	C 	0.11330 0.79880 0.66170 0.36200
C 	C 	0.58290 0.58080 0.79910 -0.27500
C 	C 	0.84770 0.68800 0.86610 0.51800
C 	C 	0.80548 0.17979 0.40011 0.16000
C 	C 	0.77990 0.61860 0.76850 -0.24700
C 	C 	0.16100 0.30250 0.16590 0.39200
C 	C 	0.64680 0.35790 0.12870 0.17600
C 	C 	0.79340 0.60470 0.52570 0.20300
C 	C 	0.62850 0.27660 0.82850 0.10000
C 	C 	0.73230 0.52570 0.92100 0.20300
C 	C 	0.68280 0.39807 0.25953 0.12200
C 	C 	0.05360 0.78610 0.13050 0.48000
C 	C 	0.80230 0.62120 0.66950 -0.46000
C 	C 	0.36146 0.78473 0.10193 0.12200
C 	C 	0.81660 0.61520 0.47340 -0.45000
C 	C 	0.33720 0.71160 0.94360 0.18200
C 	C 	0.36720 0.04830 0.66950 -0.46000
C 	C 	0.16590 0.36340 0.50490 0.39200
C 	C 	0.11520 0.31660 0.97340 -0.45000
C 	C 	0.14920 0.24800 0.97260 0.15600
C 	C 	0.44640 0.57690 0.73250 0.48000
C 	C 	0.09880 0.82340 0.35080 0.15600
C 	C 	0.84030 0.01840 0.65230 0.51800
C 	C 	0.82340 0.97260 0.72460 0.15600
C 	C 	0.52680 0.68090 0.87450 0.40900
C 	C 	0.01140 0.23150 0.85010 -0.24700
C 	C 	0.87880 0.69770 0.83050 -0.46000
C 	C 	0.48190 0.35320 0.21110 0.17600
C 	C 	0.70080 0.08380 0.30660 0.11200
C 	C 	0.69350 0.34970 0.35460 -0.44600
C 	C 	0.53080 0.10940 0.77680 -0.29500
C 	C 	0.69350 0.34380 0.83890 -0.44500
C 	C 	0.03080 0.77680 0.10940 -0.29500
C 	C 	0.12870 0.85790 0.64680 0.17600
C 	C 	0.19770 0.81890 0.36720 -0.46000
C 	C 	0.23230 0.31130 0.20660 0.20300
C 	C 	0.52740 0.85080 0.25200 0.15600
C 	C 	0.89807 0.18280 0.75953 0.12200
C 	C 	0.66170 0.29880 0.11330 0.36200
C 	C 	0.18110 0.13280 0.30230 -0.46000
C 	C 	0.80660 0.10580 0.72280 0.11200
C 	C 	0.25200 0.90120 0.22460 0.15600
C 	C 	0.55640 0.89360 0.26800 0.18200
C 	C 	0.12120 0.30230 0.16950 -0.46000
C 	C 	0.83260 0.07860 0.60940 -0.29500
C 	C 	0.90537 0.77968 0.59989 0.16000
C 	C 	0.40011 0.72032 0.09463 0.16000
C 	C 	0.92100 0.02570 0.73230 0.20300
C 	C 	0.72032 0.59463 0.90011 0.16000
C 	C 	0.48430 0.57990 0.73620 0.20400
C 	C 	0.17810 0.81200 0.65970 0.51800
C 	C 	0.80153 0.62457 0.88280 -0.06900
C 	C 	0.25040 0.74230 0.66790 -0.26700
C 	C 	0.58127 0.32304 0.19847 -0.06900
C 	C 	0.67696 0.37543 0.25823 -0.06900
C 	C 	0.10580 0.22280 0.30660 0.11200
C 	C 	0.35850 0.69750 0.86340 0.39200
C 	C 	0.12760 0.22970 0.95010 -0.22500
C 	C 	0.98860 0.76850 0.14990 -0.24700
C 	C 	0.80000 0.62850 0.85190 0.10000
C 	C 	0.69050 0.25900 0.27130 0.23400
C 	C 	0.71527 0.13854 0.39807 0.12200
C 	C 	0.05640 0.26800 0.89360 0.18200
C 	C 	0.28500 0.77490 0.11150 0.43800
C 	C 	0.09989 0.19452 0.32021 0.16000
C 	C 	0.92140 0.03080 0.75400 -0.29500
C 	C 	0.34970 0.85460 0.19350 -0.44600
C 	C 	0.39807 0.63854 0.71527 0.12200
C 	C 	0.08127 0.19847 0.32304 -0.06900
C 	C 	0.94640 0.73250 0.57690 0.48000
C 	C 	0.79280 0.64540 0.75240 -0.23400
C 	C 	0.42100 0.68870 0.89530 0.20300
C 	C 	0.82304 0.74177 0.62457 -0.06900
C 	C 	0.12560 0.83720 0.39360 0.18200
C 	C 	0.43150 0.41920 0.19050 0.23400
C 	C 	0.30153 0.88280 0.62457 -0.06900
C 	C 	0.20090 0.91920 0.41710 -0.27500
C 	C 	0.41620 0.61700 0.72280 0.11200
C 	C 	0.21390 0.84440 0.26750 0.48000
C 	C 	0.23200 0.78840 0.12560 0.18200
C 	C 	0.95010 0.22040 0.32250 -0.22500
C 	C 	0.23200 0.44360 0.60640 0.18200
C 	C 	0.75953 0.07673 0.36146 0.12200
C 	C 	0.16170 0.11330 0.29880 0.36200
C 	C 	0.95960 0.75240 0.10700 -0.23400
C 	C 	0.02570 0.23230 0.42100 0.20300
C 	C 	0.67810 0.65970 0.81200 0.51800
C 	C 	0.21160 0.83720 0.44360 0.18200
C 	C 	0.02570 0.79340 0.10470 0.20300
C 	C 	0.63280 0.95170 0.33050 -0.46000
C 	C 	0.21500 0.88850 0.22510 0.43800
C 	C 	0.78890 0.64210 0.77080 0.17600
C 	C 	0.37431 0.77968 0.17979 0.16000
C 	C 	0.38670 0.04840 0.68550 0.36200
C 	C 	0.78500 0.11150 0.77490 0.43800
C 	C 	0.14810 0.27660 0.44810 0.10000
C 	C 	0.51140 0.66130 0.77990 -0.24700
C 	C 	0.40537 0.59989 0.77968 0.16000
C 	C 	0.75823 0.08127 0.38280 -0.06900
C 	C 	0.30000 0.85190 0.62850 0.10000
C 	C 	0.74960 0.25770 0.33210 -0.26700
C 	C 	0.66130 0.38140 0.14990 -0.24700
C 	C 	0.74810 0.48430 0.40440 0.20400
C 	C 	0.57440 0.99190 0.24230 -0.26700
C 	C 	0.65030 0.50490 0.34380 -0.44500
C 	C 	0.13050 0.28610 0.05360 0.48000
C 	C 	0.85320 0.98190 0.71110 0.17600
C 	C 	0.89360 0.12560 0.33720 0.18200
C 	C 	0.37240 0.32250 0.10210 -0.22500
C 	C 	0.84970 0.65620 0.49510 -0.44500
C 	C 	0.19847 0.82304 0.58127 -0.06900
C 	C 	0.36950 0.42310 0.15560 0.48000
C 	C 	0.62120 0.16950 0.30230 -0.46000
C 	C 	0.40120 0.64920 0.17660 0.15600
C 	C 	0.68090 0.30640 0.15410 0.40900
C 	C 	0.35460 0.60700 0.14740 -0.23400
C 	C 	0.76800 0.55640 0.39360 0.18200
C 	C 	0.35190 0.80000 0.12850 0.10000
C 	C 	0.41710 0.99790 0.71620 -0.27500
C 	C 	0.31890 0.69770 0.86720 -0.46000
C 	C 	0.70660 0.23230 0.81130 0.20300
C 	C 	0.84320 0.70140 0.81660 -0.45000
C 	C 	0.37431 0.59463 0.69452 0.16000
C 	C 	0.07860 0.10940 0.33260 -0.29500
C 	C 	0.89360 0.76800 0.05640 0.18200
C 	C 	0.69452 0.59989 0.82021 0.16000
C 	C 	0.50210 0.41920 0.21830 -0.27500
C 	C 	0.14920 0.90120 0.67660 0.15600
C 	C 	0.17660 0.14920 0.40120 0.15600
C 	C 	0.01010 0.78500 0.17350 0.43800
C 	C 	0.17979 0.90011 0.30548 0.16000
C 	C 	0.72460 0.47260 0.82340 0.15600
C 	C 	0.01010 0.22510 0.33660 0.43800
C 	C 	0.16740 0.24600 0.27680 -0.29500
C 	C 	0.74600 0.66740 0.77680 -0.29500
C 	C 	0.45960 0.35260 0.20720 -0.23400
C 	C 	0.09989 0.90537 0.27968 0.16000
C 	C 	0.08080 0.08290 0.29910 -0.27500
C 	C 	0.69452 0.09463 0.37431 0.16000
C 	C 	0.42327 0.74047 0.13854 0.12200
C 	C 	0.23150 0.88140 0.22010 -0.24700
C 	C 	0.02680 0.15230 0.84590 0.40900
C 	C 	0.11150 0.83660 0.32650 0.43800
C 	C 	0.31130 0.70660 0.73230 0.20300
C 	C 	0.87130 0.14210 0.35320 0.17600
C 	C 	0.71160 0.44360 0.83720 0.18200
C 	C 	0.48770 0.06850 0.75900 0.23400
C 	C 	0.77660 0.64810 0.94810 0.10000
C 	C 	0.38480 0.02660 0.68340 -0.45000
C 	C 	0.44640 0.86950 0.21390 0.48000
C 	C 	0.91920 0.00210 0.71830 -0.27500
C 	C 	0.83720 0.94360 0.71160 0.18200
C 	C 	0.38280 0.58127 0.75823 -0.06900
C 	C 	0.19350 0.35460 0.34970 -0.44600
C 	C 	0.10210 0.82250 0.37240 -0.22500
C 	C 	0.30230 0.63280 0.18110 -0.46000
C 	C 	0.77130 0.69050 0.75900 0.23400
C 	C 	0.00210 0.78380 0.08290 -0.27500
C 	C 	0.34590 0.31910 0.19360 0.40900
C 	C 	0.11860 0.27990 0.26850 -0.24700
C 	C 	0.98770 0.75900 0.06850 0.23400
C 	C 	0.83900 0.14150 0.50490 0.39200
C 	C 	0.80153 0.17696 0.41873 -0.06900
C 	C 	0.54990 0.67750 0.77960 -0.22500
C 	C 	0.14540 0.83890 0.49510 -0.44500
C 	C 	0.34320 0.81660 0.70140 -0.45000
C 	C 	0.14810 0.87150 0.20000 0.10000
C 	C 	0.77680 0.16740 0.74600 -0.29500
C 	C 	0.48190 0.12870 0.77080 0.17600
C 	C 	0.72280 0.11700 0.41620 0.11200
C 	C 	0.15970 0.98160 0.34770 0.51800
C 	C 	0.90440 0.15630 0.42010 0.20400
C 	C 	0.62870 0.98190 0.27080 0.17600
C 	C 	0.84370 0.07990 0.59560 0.20400
C 	C 	0.18870 0.26770 0.29340 0.20300
C 	C 	0.12457 0.82304 0.24177 -0.06900
C 	C 	0.69750 0.33410 0.33900 0.39200
C 	C 	0.63050 0.57690 0.84440 0.48000
C 	C 	0.22340 0.35190 0.05190 0.10000
C 	C 	0.13280 0.33050 0.95170 -0.46000
C 	C 	0.87130 0.72920 0.01810 0.17600
C 	C 	0.78840 0.16280 0.55640 0.18200
C 	C 	0.61860 0.26850 0.27990 -0.24700
C 	C 	0.08080 0.01230 0.27130 0.23400
C 	C 	0.08127 0.88280 0.25823 -0.06900
C 	C 	0.84770 0.65410 0.47320 0.40900
C 	C 	0.60940 0.57860 0.83260 -0.29500
C 	C 	0.01570 0.26380 0.42010 0.20400
C 	C 	0.78380 0.58290 0.50210 -0.27500
C 	C 	0.10700 0.85460 0.64740 -0.23400
C 	C 	0.25240 0.79280 0.14540 -0.23400
C 	C 	0.88300 0.08380 0.77720 0.11200
C 	C 	0.15620 0.34970 0.99510 -0.44500
C 	C 	0.40440 0.42010 0.15630 0.20400
C 	C 	0.68110 0.37880 0.04830 -0.46000
C 	C 	0.61720 0.19847 0.87543 -0.06900
C 	C 	0.18280 0.92327 0.28473 0.12200
C 	C 	0.24047 0.31720 0.10193 0.12200
C 	C 	0.60210 0.22970 0.27960 -0.22500
C 	C 	0.71160 0.26800 0.37440 0.18200
C 	C 	0.24960 0.33210 0.25770 -0.26700
C 	C 	0.41920 0.70090 0.91710 -0.27500
C 	C 	0.19452 0.82021 0.59989 0.16000
C 	C 	0.90120 0.72460 0.75200 0.15600
C 	C 	0.21830 0.91920 0.50210 -0.27500
C 	C 	0.98430 0.73620 0.57990 0.20400
C 	C 	0.73200 0.60640 0.44360 0.18200
C 	C 	0.37150 0.72340 0.17150 0.10000
C 	C 	0.84320 0.14180 0.52660 -0.45000
C 	C 	0.50490 0.64150 0.83900 0.39200
C 	C 	0.77960 0.60210 0.72970 -0.22500
C 	C 	0.24600 0.77680 0.66740 -0.29500
C 	C 	0.18870 0.92100 0.39530 0.20300
C 	C 	0.16340 0.98990 0.27490 0.43800
C 	C 	0.87431 0.69452 0.59463 0.16000
C 	C 	0.85260 0.89300 0.64540 -0.23400
C 	C 	0.08290 0.79910 0.58080 -0.27500
C 	C 	0.16340 0.17350 0.38850 0.43800
C 	C 	0.96920 0.74600 0.57860 -0.29500
C 	C 	0.78170 0.70090 0.78380 -0.27500
C 	C 	0.15230 0.34590 0.52680 0.40900
C 	C 	0.47340 0.11520 0.81660 -0.45000
C 	C 	0.36290 0.54840 0.16170 0.36200
C 	C 	0.19340 0.89420 0.27720 0.11200
C 	C 	0.25400 0.33260 0.22320 -0.29500
C 	C 	0.72970 0.62760 0.45010 -0.22500
C 	C 	0.68280 0.28473 0.92327 0.12200
C 	C 	0.91750 0.99190 0.74960 -0.26700
C 	C 	0.62457 0.24177 0.82304 -0.06900
C 	C 	0.00490 0.16590 0.86340 0.39200
C 	C 	0.60580 0.30660 0.22280 0.11200
C 	C 	0.84380 0.65030 0.00490 -0.44500
C 	C 	0.64810 0.44810 0.27660 0.10000
C 	C 	0.31450 0.86290 0.20120 0.36200
C 	C 	0.81660 0.20140 0.84320 -0.45000
C 	C 	0.12569 0.30548 0.40537 0.16000
C 	C 	0.15230 0.31200 0.13390 0.51800
C 	C 	0.32250 0.72040 0.95010 -0.22500
C 	C 	0.47260 0.32340 0.22460 0.15600
C 	C 	0.39060 0.96920 0.72320 -0.29500
C 	C 	0.99510 0.14540 0.33890 -0.44500
C 	C 	0.74760 0.20720 0.85460 -0.23400
C 	C 	0.13710 0.29880 0.18550 0.36200
C 	C 	0.45160 0.11330 0.81450 0.36200
C 	C 	0.27960 0.72970 0.60210 -0.22500
C 	C 	0.44810 0.77660 0.14810 0.10000
C 	C 	0.43150 0.01230 0.74100 0.23400
C 	C 	0.41920 0.69050 0.93150 0.23400
C 	C 	0.67350 0.66340 0.88850 0.43800
C 	C 	0.74760 0.54040 0.39300 -0.23400
C 	C 	0.92327 0.78473 0.68280 0.12200
C 	C 	0.83830 0.95160 0.63710 0.36200
C 	C 	0.83210 0.08250 0.57440 -0.26700
C 	C 	0.30650 0.65030 0.64540 -0.44600
C 	C 	0.07690 0.94640 0.23250 0.48000
C 	C 	0.38280 0.80153 0.12457 -0.06900
C 	C 	0.64740 0.29280 0.04040 -0.23400
C 	C 	0.77540 0.59880 0.74800 0.15600
C 	C 	0.22010 0.83870 0.48860 -0.24700
C 	C 	0.27968 0.40537 0.09989 0.16000
C 	C 	0.25823 0.87543 0.67696 -0.06900
C 	C 	0.29280 0.54040 0.14740 -0.23400
C 	C 	0.38480 0.35820 0.20140 -0.45000
C 	C 	0.20120 0.36290 0.31450 0.36200
C 	C 	0.69360 0.34590 0.81910 0.40900
C 	C 	0.60940 0.03080 0.27680 -0.29500
C 	C 	0.61150 0.32650 0.83660 0.43800
C 	C 	0.21830 0.29910 0.21620 -0.27500
C 	C 	0.66590 0.16100 0.80250 0.39200
C 	C 	0.88300 0.79920 0.60580 0.11200
C 	C 	0.23230 0.92100 0.52570 0.20300
C 	C 	0.51840 0.17810 0.86610 0.51800
C 	C 	0.81130 0.07900 0.60470 0.20300
C 	C 	0.14540 0.85260 0.39300 -0.23400
C 	C 	0.88480 0.68340 0.02660 -0.45000
C 	C 	0.16130 0.14990 0.38140 -0.24700
C 	C 	0.35320 0.64210 0.87130 0.17600
C 	C 	0.29910 0.58290 0.08080 -0.27500
C 	C 	0.59880 0.35080 0.82340 0.15600
C 	C 	0.57690 0.23250 0.94640 0.48000
C 	C 	0.33870 0.72010 0.98860 -0.24700
C 	C 	0.37543 0.75823 0.17696 -0.06900
C 	C 	0.86146 0.10193 0.78473 0.12200
C 	C 	0.62569 0.22032 0.82021 0.16000
C 	C 	0.64180 0.34320 0.02660 -0.45000
C 	C 	0.92010 0.90440 0.65630 0.20400
C 	C 	0.12550 0.30640 0.15230 0.40900
C 	C 	0.02740 0.77540 0.67660 0.15600
C 	C 	0.66280 0.28840 0.05640 0.18200
C 	C 	0.26380 0.34370 0.24810 0.20400
C 	C 	0.58127 0.25823 0.88280 -0.06900
C 	C 	0.49790 0.58080 0.78170 -0.27500
C 	C 	0.24800 0.47260 0.64920 0.15600
C 	C 	0.63660 0.99510 0.33410 0.39200
C 	C 	0.12550 0.81910 0.47320 0.40900
C 	C 	0.66950 0.12120 0.80230 -0.46000
C 	C 	0.28170 0.49790 0.08080 -0.27500
C 	C 	0.74960 0.49190 0.91750 -0.26700
C 	C 	0.72032 0.12569 0.32021 0.16000
C 	C 	0.24100 0.80950 0.22870 0.23400
C 	C 	0.77030 0.22040 0.89790 -0.22500
C 	C 	0.27130 0.51230 0.08080 0.23400
C 	C 	0.98860 0.22010 0.33870 -0.24700
C 	C 	0.83830 0.88670 0.70120 0.36200
C 	C 	0.00810 0.75040 0.58250 -0.26700
C 	C 	0.16110 0.15620 0.30650 -0.44500
C 	C 	0.27540 0.74800 0.59880 0.15600
C 	C 	0.95170 0.12120 0.31890 -0.46000
C 	C 	0.36340 0.00490 0.66590 0.39200
C 	C 	0.73620 0.65630 0.75190 0.20400
C 	C 	0.80640 0.18090 0.65410 0.40900
C 	C 	0.23150 0.35010 0.51140 -0.24700
C 	C 	0.35460 0.50490 0.16110 -0.44500
C 	C 	0.77540 0.17660 0.52740 0.15600
C 	C 	0.97430 0.20660 0.89530 0.20300
C 	C 	0.82021 0.09989 0.69452 0.16000
C 	C 	0.98990 0.21500 0.82650 0.43800
C 	C 	0.42560 0.41750 0.16790 -0.26700
C 	C 	0.52570 0.10470 0.79340 0.20300
C 	C 	0.05360 0.26750 0.42310 0.48000
C 	C 	0.49510 0.13660 0.83410 0.39200
C 	C 	0.65410 0.97320 0.34770 0.40900
C 	C 	0.04040 0.79280 0.64740 -0.23400
C 	C 	0.66100 0.16590 0.30250 0.39200
C 	C 	0.64540 0.25240 0.29280 -0.23400
C 	C 	0.21620 0.79910 0.21830 -0.27500
C 	C 	0.60210 0.37240 0.82250 -0.22500
C 	C 	0.35850 0.66100 0.99510 0.39200
C 	C 	0.16590 0.80250 0.16100 0.39200
C 	C 	0.85790 0.71110 0.72920 0.17600
C 	C 	0.60193 0.36146 0.28473 0.12200
C 	C 	0.29880 0.68550 0.63710 0.36200
C 	C 	0.30640 0.65230 0.62550 0.40900
C 	C 	0.21620 0.41710 0.49790 -0.27500
C 	C 	0.80950 0.72870 0.74100 0.23400
C 	C 	0.65030 0.14540 0.80650 -0.44600
C 	C 	0.53080 0.42140 0.25400 -0.29500
C 	C 	0.82850 0.05190 0.70000 0.10000
C 	C 	0.24600 0.46920 0.07860 -0.29500
C 	C 	0.67696 0.30153 0.91873 -0.06900
C 	C 	0.86290 0.70120 0.81450 0.36200
C 	C 	0.28610 0.55360 0.63050 0.48000
C 	C 	0.14180 0.02660 0.34320 -0.45000
C 	C 	0.15560 0.23250 0.28610 0.48000
C 	C 	0.16790 0.25040 0.24230 -0.26700
C 	C 	0.66170 0.36290 0.04840 0.36200
C 	C 	0.13280 0.80230 0.68110 -0.46000
C 	C 	0.20660 0.39530 0.47430 0.20300
C 	C 	0.26770 0.47430 0.07900 0.20300
C 	C 	0.92100 0.89530 0.68870 0.20300
C 	C 	0.66130 0.27990 0.01140 -0.24700
C 	C 	0.86610 0.67810 0.51840 0.51800
C 	C 	0.35010 0.01140 0.73150 -0.24700
C 	C 	0.67660 0.27540 0.02740 0.15600
C 	C 	0.54840 0.88670 0.18550 0.36200
C 	C 	0.68090 0.37450 0.02680 0.40900
C 	C 	0.32650 0.98990 0.71500 0.43800
C 	C 	0.98160 0.84770 0.65970 0.51800
C 	C 	0.24810 0.40440 0.48430 0.20400
C 	C 	0.39790 0.77030 0.72040 -0.22500
C 	C 	0.69050 0.43150 0.91920 0.23400
C 	C 	0.99190 0.24960 0.41750 -0.26700
C 	C 	0.60700 0.95960 0.25240 -0.23400
C 	C 	0.61520 0.97340 0.31660 -0.45000
C 	C 	0.17750 0.04990 0.27960 -0.22500
C 	C 	0.01230 0.24100 0.93150 0.23400
C 	C 	0.52740 0.67660 0.77540 0.15600
C 	C 	0.14150 0.00490 0.33900 0.39200
C 	C 	0.63660 0.64150 0.80250 0.39200
C 	C 	0.91750 0.92560 0.66790 -0.26700
C 	C 	0.26770 0.79340 0.68870 0.20300
C 	C 	0.57990 0.23620 0.98430 0.20400
C 	C 	0.15680 0.85820 0.47340 -0.45000
C 	C 	0.58080 0.30950 0.06850 0.23400
C 	C 	0.71500 0.48990 0.32650 0.43800
C 	C 	0.70140 0.31660 0.34320 -0.45000
C 	C 	0.93150 0.19050 0.41920 0.23400
C 	C 	0.54040 0.64740 0.79280 -0.23400
C 	C 	0.33210 0.75770 0.74960 -0.26700
C 	C 	0.89060 0.16740 0.42140 -0.29500
C 	C 	0.86720 0.66950 0.04830 -0.46000
C 	C 	0.66790 0.24230 0.25040 -0.26700
C 	C 	0.75900 0.56850 0.48770 0.23400
C 	C 	0.39300 0.35260 0.14540 -0.23400
C 	C 	0.71390 0.26750 0.84440 0.48000
C 	C 	0.79910 0.71830 0.71620 -0.27500
C 	C 	0.40440 0.98430 0.74810 0.20400
C 	C 	0.16110 0.00490 0.35460 -0.44500
C 	C 	0.08250 0.00810 0.25040 -0.26700
C 	C 	0.17696 0.25823 0.37543 -0.06900
C 	C 	0.37240 0.04990 0.77030 -0.22500
C 	C 	0.24177 0.32304 0.12457 -0.06900
C 	C 	0.66950 0.54830 0.36720 -0.46000
C 	C 	0.54830 0.68110 0.87880 -0.46000
C 	C 	0.24047 0.92327 0.63854 0.12200
C 	C 	0.60470 0.02570 0.29340 0.20300
C 	C 	0.32304 0.69847 0.08127 -0.06900
C 	C 	0.74100 0.22870 0.80950 0.23400
C 	C 	0.95160 0.13710 0.33830 0.36200
C 	C 	0.21500 0.32650 0.48990 0.43800
C 	C 	0.35320 0.71110 0.98190 0.17600
C 	C 	0.84970 0.19350 0.85460 -0.44600
C 	C 	0.65630 0.40440 0.92010 0.20400
C 	C 	0.66110 0.30650 0.15620 -0.44500
C 	C 	0.59880 0.24800 0.27540 0.15600
C 	C 	0.91920 0.91710 0.70090 -0.27500
C 	C 	0.71110 0.22920 0.35790 0.17600
C 	C 	0.33260 0.72320 0.75400 -0.29500
C 	C 	0.14150 0.13660 0.30250 0.39200
C 	C 	0.37440 0.60640 0.16280 0.18200
C 	C 	0.09463 0.87431 0.19452 0.16000
C 	C 	0.04040 0.24760 0.89300 -0.23400
C 	C 	0.88280 0.75823 0.58127 -0.06900
C 	C 	0.87440 0.71160 0.76800 0.18200
C 	C 	0.77030 0.54990 0.37240 -0.22500
C 	C 	0.95960 0.20720 0.35260 -0.23400
C 	C 	0.58080 0.29910 0.08290 -0.27500
C 	C 	0.87880 0.18110 0.54830 -0.46000
C 	C 	0.32850 0.62850 0.77660 0.10000
C 	C 	0.20140 0.85820 0.38480 -0.45000
C 	C 	0.85850 0.86340 0.69750 0.39200
C 	C 	0.18110 0.04830 0.37880 -0.46000
C 	C 	0.27720 0.39420 0.19340 0.11200
C 	C 	0.89300 0.14540 0.35260 -0.23400
C 	C 	0.65970 0.31200 0.17810 0.51800
C 	C 	0.87543 0.69847 0.61720 -0.06900
C 	C 	0.78380 0.20090 0.78170 -0.27500
C 	C 	0.74047 0.10193 0.31720 0.12200
C 	C 	0.81910 0.97320 0.62550 0.40900
C 	C 	0.34770 0.87450 0.19360 0.40900
C 	C 	0.72320 0.46920 0.39060 -0.29500
C 	C 	0.58380 0.20080 0.80660 0.11200
C 	C 	0.70720 0.24760 0.35460 -0.23400
C 	C 	0.37543 0.61720 0.69847 -0.06900
C 	C 	0.48430 0.90440 0.24810 0.20400
C 	C 	0.32021 0.62569 0.72032 0.16000
C 	C 	0.30640 0.65410 0.18090 0.40900
C 	C 	0.58290 0.00210 0.28380 -0.27500
C 	C 	0.88670 0.20120 0.33830 0.36200
C 	C 	0.25953 0.89807 0.68280 0.12200
C 	C 	0.13660 0.33410 0.99510 0.39200
C 	C 	0.65560 0.28610 0.23250 0.48000
C 	C 	0.28170 0.78380 0.70090 -0.27500
C 	C 	0.81200 0.65230 0.63390 0.51800
C 	C 	0.68550 0.54840 0.38670 0.36200
C 	C 	0.59463 0.19452 0.87431 0.16000
C 	C 	0.22510 0.83660 0.51010 0.43800
C 	C 	0.97320 0.12550 0.31910 0.40900
C 	C 	0.04990 0.27030 0.87240 -0.22500
C 	C 	0.40537 0.80548 0.12569 0.16000
C 	C 	0.20090 0.28170 0.28380 -0.27500
C 	C 	0.39360 0.05640 0.76800 0.18200
C 	C 	0.89530 0.70660 0.97430 0.20300
C 	C 	0.13390 0.81200 0.15230 0.51800
C 	C 	0.41750 0.66790 0.92560 -0.26700
C 	C 	0.73230 0.20660 0.31130 0.20300
C 	C 	0.98190 0.21110 0.35320 0.17600
C 	C 	0.42310 0.76750 0.05360 0.48000
C 	C 	0.66790 0.42560 0.91750 -0.26700
C 	C 	0.72920 0.21110 0.85790 0.17600
C 	C 	0.33050 0.87880 0.19770 -0.46000
C 	C 	0.10700 0.25240 0.95960 -0.23400
C 	C 	0.20000 0.37150 0.14810 0.10000
C 	C 	0.15970 0.17810 0.31200 0.51800
C 	C 	0.18280 0.25953 0.39807 0.12200
C 	C 	0.31720 0.60193 0.74047 0.12200
C 	C 	0.40011 0.67979 0.80548 0.16000
C 	C 	0.64150 0.30250 0.13660 0.39200
C 	C 	0.19360 0.81910 0.34590 0.40900
C 	C 	0.22870 0.91920 0.48770 0.23400
C 	C 	0.33210 0.57440 0.08250 -0.26700
C 	C 	0.37450 0.84770 0.69360 0.40900
C 	C 	0.70000 0.14810 0.37150 0.10000
C 	C 	0.84440 0.07690 0.63050 0.48000
C 	C 	0.89790 0.72040 0.77030 -0.22500
C 	C 	0.77490 0.61150 0.78500 0.43800
C 	C 	0.87240 0.10210 0.32250 -0.22500
C 	C 	0.65230 0.12550 0.80640 0.40900
C 	C 	0.77968 0.67979 0.87431 0.16000
C 	C 	0.11720 0.87543 0.19847 -0.06900
C 	C 	0.63390 0.15230 0.81200 0.51800
C 	C 	0.87150 0.17150 0.72340 0.10000
C 	C 	0.89060 0.72320 0.96920 -0.29500
C 	C 	0.83660 0.01010 0.72510 0.43800
C 	C 	0.51570 0.42010 0.26380 0.20400
C 	C 	0.25823 0.38280 0.08127 -0.06900
C 	C 	0.28380 0.78170 0.20090 -0.27500
C 	C 	0.81450 0.61330 0.45160 0.36200
C 	C 	0.27030 0.37240 0.54990 -0.22500
C 	C 	0.75200 0.52740 0.35080 0.15600
C 	C 	0.68340 0.15680 0.79860 -0.45000
C 	C 	0.56850 0.58080 0.80950 0.23400
C 	C 	0.21160 0.37440 0.26800 0.18200
C 	C 	0.15620 0.80650 0.66110 -0.44500
C 	C 	0.05190 0.20000 0.32850 0.10000
C 	C 	0.99510 0.16100 0.35850 0.39200
C 	C 	0.26750 0.92310 0.55360 0.48000
C 	C 	0.00490 0.85460 0.66110 -0.44500
C 	C 	0.22032 0.90011 0.59463 0.16000
C 	C 	0.28380 0.50210 0.58290 -0.27500
C 	C 	0.98190 0.77080 0.12870 0.17600
C 	C 	0.42560 0.00810 0.75770 -0.26700
C 	C 	0.19750 0.33900 0.33410 0.39200
C 	C 	0.38850 0.67350 0.16340 0.43800
C 	C 	0.49190 0.41750 0.24960 -0.26700
C 	C 	0.25200 0.35080 0.52740 0.15600
C 	C 	0.23620 0.48430 0.07990 0.20400
C 	C 	0.37130 0.01810 0.72920 0.17600
C 	C 	0.58080 0.28170 0.99790 -0.27500
C 	C 	0.01840 0.86610 0.17810 0.51800
C 	C 	0.85320 0.87130 0.64210 0.17600
C 	C 	0.27540 0.52740 0.17660 0.15600
C 	C 	0.50490 0.84380 0.15030 -0.44500
C 	C 	0.34440 0.71390 0.76750 0.48000
C 	C 	0.94360 0.21160 0.33720 0.18200
C 	C 	0.82304 0.08127 0.69847 -0.06900
C 	C 	0.25190 0.73620 0.15630 0.20400
C 	C 	0.15230 0.80640 0.12550 0.40900
C 	C 	0.85190 0.12850 0.80000 0.10000
C 	C 	0.51840 0.34030 0.15230 0.51800
C 	C 	0.33410 0.83900 0.19750 0.39200
C 	C 	0.58250 0.33210 0.07440 -0.26700
C 	C 	0.38140 0.64990 0.16130 -0.24700
C 	C 	0.77660 0.12850 0.32850 0.10000
C 	C 	0.31130 0.60470 0.07900 0.20300
C 	C 	0.33870 0.61860 0.85010 -0.24700
C 	C 	0.66740 0.39060 0.92140 -0.29500
C 	C 	0.35820 0.65680 0.97340 -0.45000
C 	C 	0.59560 0.01570 0.25190 0.20400
C 	C 	0.20660 0.81130 0.23230 0.20300
C 	C 	0.69847 0.11720 0.37543 -0.06900
C 	C 	0.49790 0.91710 0.21620 -0.27500
C 	C 	0.78610 0.15560 0.73250 0.48000
C 	C 	0.33660 0.61150 0.82650 0.43800
C 	C 	0.70660 0.47430 0.39530 0.20300
C 	C 	0.76750 0.21390 0.34440 0.48000
C 	C 	0.83890 0.84380 0.69350 -0.44500
C 	C 	0.60700 0.64740 0.85460 -0.23400
C 	C 	0.80250 0.14150 0.63660 0.39200
C 	C 	0.26800 0.39360 0.55640 0.18200
C 	C 	0.22010 0.38140 0.23150 -0.24700
C 	C 	0.72870 0.24100 0.30950 0.23400
C 	C 	0.19050 0.27130 0.25900 0.23400
C 	C 	0.47260 0.14920 0.74800 0.15600
C 	C 	0.18340 0.79860 0.15680 -0.45000
C 	C 	0.64150 0.33900 0.00490 0.39200
C 	C 	0.07990 0.98430 0.23620 0.20400
C 	C 	0.39360 0.33720 0.12560 0.18200
C 	C 	0.30250 0.63660 0.14150 0.39200
C 	C 	0.17696 0.91873 0.30153 -0.06900
C 	C 	0.25900 0.77130 0.19050 0.23400
C 	C 	0.41710 0.41920 0.20090 -0.27500
C 	C 	0.30650 0.65620 0.16110 -0.44500
C 	C 	0.72460 0.25200 0.40120 0.15600
C 	C 	0.18340 0.38480 0.52660 -0.45000
C 	C 	0.55360 0.42310 0.26750 0.48000
C 	C 	0.02680 0.87450 0.68090 0.40900
C 	C 	0.20080 0.30660 0.08380 0.11200
C 	C 	0.33830 0.70120 0.88670 0.36200
C 	C 	0.28500 0.51010 0.67350 0.43800
C 	C 	0.04990 0.77960 0.67750 -0.22500
C 	C 	0.11700 0.20080 0.39420 0.11200
C 	C 	0.66740 0.27680 0.24600 -0.29500
C 	C 	0.30950 0.74100 0.72870 0.23400
C 	C 	0.19050 0.91920 0.43150 0.23400
C 	C 	0.72340 0.05190 0.35190 0.10000
C 	C 	0.59463 0.40011 0.22032 0.16000
C 	C 	0.38140 0.73150 0.72010 -0.24700
C 	C 	0.94810 0.14810 0.77660 0.10000
C 	C 	0.86720 0.19770 0.31890 -0.46000
C 	C 	0.15630 0.92010 0.40440 0.20400
C 	C 	0.64810 0.20000 0.87150 0.10000
C 	C 	0.87450 0.18090 0.52680 0.40900
C 	C 	0.64680 0.28890 0.01810 0.17600
C 	C 	0.81910 0.84590 0.69360 0.40900
C 	C 	0.24230 0.49190 0.57440 -0.26700
C 	C 	0.71830 0.21620 0.29910 -0.27500
C 	C 	0.32650 0.33660 0.11150 0.43800
C 	C 	0.62760 0.95010 0.22970 -0.22500
C 	C 	0.19847 0.37543 0.11720 -0.06900
C 	C 	0.64180 0.29860 0.11520 -0.45000
C 	C 	0.37440 0.76800 0.71160 0.18200
C 	C 	0.54990 0.87240 0.27030 -0.22500
C 	C 	0.59989 0.27968 0.90537 0.16000
C 	C 	0.93150 0.74100 0.01230 0.23400
C 	C 	0.74800 0.09880 0.77540 0.15600
C 	C 	0.22280 0.80660 0.60580 0.11200
C 	C 	0.61700 0.39420 0.20080 0.11200
C 	C 	0.83260 0.75400 0.72320 -0.29500
C 	C 	0.57673 0.25953 0.86146 0.12200
C 	C 	0.04830 0.16950 0.86720 -0.46000
C 	C 	0.14740 0.04040 0.29280 -0.23400
C 	C 	0.19350 0.83890 0.34380 -0.44500
C 	C 	0.15030 0.80650 0.14540 -0.44600
C 	C 	0.45170 0.31890 0.12120 -0.46000
C 	C 	0.74810 0.26380 0.84370 0.20400
C 	C 	0.14990 0.88140 0.66130 -0.24700
C 	C 	0.60193 0.24047 0.81720 0.12200
C 	C 	0.86340 0.66590 0.00490 0.39200
C 	C 	0.72510 0.21500 0.38850 0.43800
C 	C 	0.31660 0.47340 0.61520 -0.45000
C 	C 	0.58080 0.27130 0.01230 0.23400
C 	C 	0.04840 0.18550 0.88670 0.36200
C 	C 	0.46920 0.57860 0.74600 -0.29500
C 	C 	0.99790 0.21620 0.91710 -0.27500
C 	C 	0.71620 0.21830 0.79910 -0.27500
C 	C 	0.29340 0.52570 0.60470 0.20300
C 	C 	0.65230 0.52680 0.34590 0.40900
C 	C 	0.34590 0.02680 0.65230 0.40900
C 	C 	0.20120 0.83830 0.38670 0.36200
C 	C 	0.65560 0.36950 0.92310 0.48000
C 	C 	0.42310 0.65560 0.86950 0.48000
C 	C 	0.51570 0.09560 0.75190 0.20400
C 	C 	0.08080 0.06850 0.30950 0.23400
C 	C 	0.52660 0.88480 0.18340 -0.45000
C 	C 	0.39530 0.42100 0.18870 0.20300
C 	C 	0.71527 0.57673 0.81720 0.12200
C 	C 	0.95010 0.72970 0.12760 -0.22500
C 	C 	0.22970 0.77960 0.10210 -0.22500
C 	C 	0.63710 0.18550 0.29880 0.36200
C 	C 	0.50490 0.86340 0.16590 0.39200
C 	C 	0.64740 0.35460 0.10700 -0.23400
C 	C 	0.64990 0.66130 0.88140 -0.24700
C 	C 	0.68340 0.52660 0.38480 -0.45000
C 	C 	0.01810 0.22920 0.87130 0.17600
C 	C 	0.25900 0.48770 0.56850 0.23400
C 	C 	0.82650 0.71500 0.98990 0.43800
C 	C 	0.17979 0.27968 0.37431 0.16000
C 	C 	0.69360 0.34770 0.37450 0.40900
C 	C 	0.32190 0.34030 0.18800 0.51800
C 	C 	0.62870 0.64680 0.85790 0.17600
C 	C 	0.77968 0.09989 0.40537 0.16000
C 	C 	0.92010 0.01570 0.76380 0.20400
C 	C 	0.69340 0.41620 0.29920 0.11200
C 	C 	0.26850 0.77990 0.11860 -0.24700
C 	C 	0.63854 0.21527 0.89807 0.12200
C 	C 	0.45010 0.32250 0.22040 -0.22500
C 	C 	0.55190 0.22340 0.85190 0.10000
C 	C 	0.08080 0.99790 0.28170 -0.27500
C 	C 	0.78610 0.63050 0.55360 0.48000
C 	C 	0.07990 0.09560 0.34370 0.20400
C 	C 	0.65230 0.13390 0.31200 0.51800
C 	C 	0.14680 0.12870 0.35790 0.17600
C 	C 	0.04830 0.87880 0.68110 -0.46000
C 	C 	0.45960 0.10700 0.75240 -0.23400
C 	C 	0.72010 0.48860 0.83870 -0.24700
C 	C 	0.64990 0.98860 0.26850 -0.24700
C 	C 	0.87431 0.17979 0.77968 0.16000
C 	C 	0.05190 0.85190 0.22340 0.10000
C 	C 	0.36610 0.51840 0.67810 0.51800
C 	C 	0.68870 0.29340 0.26770 0.20300
C 	C 	0.38670 0.33830 0.20120 0.36200
C 	C 	0.62569 0.40537 0.30548 0.16000
C 	C 	0.22280 0.41620 0.11700 0.11200
C 	C 	0.75400 0.53080 0.92140 -0.29500
C 	C 	0.97320 0.84770 0.15410 0.40900
C 	C 	0.98770 0.22870 0.41920 0.23400
C 	C 	0.35820 0.70140 0.88480 -0.45000
C 	C 	0.45160 0.33830 0.13710 0.36200
C 	C 	0.70720 0.45960 0.85260 -0.23400
C 	C 	0.76850 0.11860 0.77990 -0.24700
C 	C 	0.27960 0.54990 0.17750 -0.22500
C 	C 	0.07860 0.96920 0.24600 -0.29500
C 	C 	0.27680 0.53080 0.60940 -0.29500
C 	C 	0.47320 0.15410 0.84770 0.40900
C 	C 	0.16100 0.85850 0.49510 0.39200
C 	C 	0.67979 0.37431 0.27968 0.16000
C 	C 	0.30548 0.90537 0.62569 0.16000
C 	C 	0.87150 0.70000 0.64810 0.10000
C 	C 	0.30000 0.44810 0.17150 0.10000
C 	C 	0.91873 0.80153 0.67696 -0.06900
C 	C 	0.12870 0.27080 0.98190 0.17600
C 	C 	0.25400 0.92140 0.53080 -0.29500
C 	C 	0.70090 0.28380 0.28170 -0.27500
C 	C 	0.81720 0.74047 0.60193 0.12200
C 	C 	0.09560 0.84370 0.57990 0.20400
C 	C 	0.61720 0.41873 0.24177 -0.06900
C 	C 	0.34380 0.00490 0.65030 -0.44500
C 	C 	0.50810 0.92560 0.25770 -0.26700
C 	C 	0.99190 0.74230 0.07440 -0.26700
C 	C 	0.48990 0.82650 0.21500 0.43800
C 	C 	0.72040 0.27030 0.39790 -0.22500
C 	C 	0.81720 0.07673 0.71527 0.12200
C 	C 	0.74230 0.57440 0.49190 -0.26700
C 	C 	0.81200 0.15970 0.67810 0.51800
C 	C 	0.84380 0.19350 0.33890 -0.44500
C 	C 	0.10940 0.27680 0.03080 -0.29500
C 	C 	0.90537 0.12569 0.80548 0.16000
C 	C 	0.50810 0.58250 0.75040 -0.26700
C 	C 	0.80548 0.62569 0.90537 0.16000
C 	C 	0.30950 0.56850 0.08080 0.23400
C 	C 	0.07690 0.13050 0.34440 0.48000
C 	C 	0.15410 0.34770 0.97320 0.40900
C 	C 	0.67150 0.37150 0.22340 0.10000
C 	C 	0.80660 0.70080 0.58380 0.11200
C 	C 	0.15680 0.29860 0.18340 -0.45000
C 	C 	0.00490 0.83900 0.64150 0.39200
C 	C 	0.76800 0.21160 0.87440 0.18200
C 	C 	0.27968 0.87431 0.67979 0.16000
C 	C 	0.08250 0.07440 0.33210 -0.26700
C 	C 	0.68870 0.39530 0.92100 0.20300
C 	C 	0.89807 0.71527 0.63854 0.12200
C 	C 	0.51810 0.87130 0.22920 0.17600
C 	C 	0.32190 0.98160 0.63390 0.51800
C 	C 	0.20720 0.35460 0.24760 -0.23400
C 	C 	0.12560 0.28840 0.23200 0.18200
C 	C 	0.24177 0.91873 0.61720 -0.06900
C 	C 	0.25040 0.50810 0.08250 -0.26700
C 	C 	0.39420 0.70080 0.11700 0.11200
C 	C 	0.33890 0.64540 0.99510 -0.44500
C 	C 	0.39790 0.62760 0.17750 -0.22500
C 	C 	0.28890 0.51810 0.14680 0.17600
C 	C 	0.88670 0.68550 0.04840 0.36200
C 	C 	0.19340 0.29920 0.41620 0.11200
C 	C 	0.91710 0.71620 0.99790 -0.27500
C 	C 	0.90440 0.74810 0.98430 0.20400
C 	C 	0.65620 0.99510 0.34970 -0.44500
C 	C 	0.28610 0.73250 0.15560 0.48000
C 	C 	0.33900 0.83410 0.69750 0.39200
C 	C 	0.52680 0.84590 0.15230 0.40900
C 	C 	0.22032 0.32021 0.12569 0.16000
C 	C 	0.06850 0.25900 0.98770 0.23400
C 	C 	0.83050 0.63280 0.45170 -0.46000
C 	C 	0.75190 0.15630 0.73620 0.20400
C 	C 	0.37150 0.64810 0.70000 0.10000
C 	C 	0.91710 0.20090 0.41920 -0.27500
C 	C 	0.01140 0.77990 0.66130 -0.24700
C 	C 	0.85010 0.11860 0.33870 -0.24700
C 	C 	0.65230 0.51840 0.84030 0.51800
C 	C 	0.11860 0.83870 0.35010 -0.24700
C 	C 	0.11520 0.79860 0.64180 -0.45000
C 	C 	0.72510 0.51010 0.83660 0.43800
C 	C 	0.92310 0.05360 0.76750 0.48000
C 	C 	0.84440 0.76750 0.71390 0.48000
C 	C 	0.29860 0.68340 0.65680 -0.45000
C 	C 	0.35010 0.33870 0.11860 -0.24700
C 	C 	0.75770 0.24960 0.83210 -0.26700
C 	C 	0.30660 0.58380 0.70080 0.11200
C 	C 	0.13854 0.89807 0.21527 0.12200
C 	C 	0.11330 0.31450 0.95160 0.36200
C 	C 	0.66110 0.35460 0.00490 -0.44500
C 	C 	0.62550 0.47320 0.81910 0.40900
C 	C 	0.85010 0.73150 0.01140 -0.24700
C 	C 	0.97340 0.81660 0.11520 -0.45000
C 	C 	0.60640 0.94360 0.23200 0.18200
C 	C 	0.90120 0.17660 0.64920 0.15600
C 	C 	0.37880 0.83050 0.69770 -0.46000
C 	C 	0.67660 0.40120 0.14920 0.15600
C 	C 	0.79920 0.10580 0.38300 0.11200
C 	C 	0.60470 0.57900 0.81130 0.20300
C 	C 	0.83410 0.63660 0.49510 0.39200
C 	C 	0.85260 0.95960 0.70720 -0.23400
C 	C 	0.22460 0.82340 0.47260 0.15600
C 	C 	0.09560 0.25190 0.01570 0.20400
C 	C 	0.62560 0.23200 0.28840 0.18200
C 	C 	0.70140 0.38480 0.85820 -0.45000
C 	C 	0.48770 0.41920 0.22870 0.23400
C 	C 	0.14740 0.10700 0.35460 -0.23400
C 	C 	0.34770 0.47320 0.65410 0.40900
C 	C 	0.98160 0.13390 0.82190 0.51800
C 	C 	0.91620 0.72280 0.61700 0.11200
C 	C 	0.64920 0.67660 0.90120 0.15600
C 	C 	0.24100 0.43150 0.51230 0.23400
C 	C 	0.57900 0.31130 0.10470 0.20300
C 	C 	0.71390 0.44640 0.36950 0.48000
C 	C 	0.33050 0.45170 0.63280 -0.46000
C 	C 	0.77490 0.16340 0.48990 0.43800
C 	C 	0.44360 0.33720 0.21160 0.18200
C 	C 	0.69340 0.27720 0.89420 0.11200
C 	C 	0.02740 0.25200 0.85080 0.15600
C 	C 	0.68800 0.36610 0.34770 0.51800
C 	C 	0.77680 0.60940 0.53080 -0.29500
C 	C 	0.60640 0.66280 0.87440 0.18200
C 	C 	0.55640 0.66280 0.78840 0.18200
C 	C 	0.51010 0.17350 0.78500 0.43800
C 	C 	0.65970 0.34770 0.98160 0.51800
C 	C 	0.22340 0.87150 0.67150 0.10000
C 	C 	0.62457 0.38280 0.30153 -0.06900
C 	C 	0.50490 0.66110 0.85460 -0.44500
C 	C 	0.69847 0.58127 0.82304 -0.06900
C 	C 	0.70090 0.41710 0.91920 -0.27500
C 	C 	0.23250 0.78610 0.65560 0.48000
C 	C 	0.88140 0.72010 0.73150 -0.24700
C 	C 	0.00810 0.25770 0.92560 -0.26700
C 	C 	0.86290 0.16170 0.54840 0.36200
C 	C 	0.28890 0.77080 0.64210 0.17600
C 	C 	0.14540 0.30650 0.15030 -0.44600
C 	C 	0.92140 0.89060 0.66740 -0.29500
C 	C 	0.22920 0.85790 0.21110 0.17600
C 	C 	0.27490 0.78500 0.61150 0.43800
C 	C 	0.78890 0.14680 0.51810 0.17600
C 	C 	0.26750 0.34440 0.21390 0.48000
C 	C 	0.75240 0.60700 0.45960 -0.23400
C 	C 	0.85080 0.09880 0.32340 0.15600
C 	C 	0.07900 0.97430 0.26770 0.20300
C 	C 	0.94360 0.73200 0.10640 0.18200
C 	C 	0.73150 0.22010 0.88140 -0.24700
C 	C 	0.41873 0.67696 0.80153 -0.06900
C 	C 	0.33720 0.62560 0.89360 0.18200
C 	C 	0.88850 0.72510 0.71500 0.43800
C 	C 	0.01570 0.75190 0.09560 0.20400
C 	C 	0.42010 0.76380 0.01570 0.20400
C 	C 	0.57990 0.34370 0.09560 0.20400
C 	C 	0.07440 0.24230 0.99190 -0.26700
C 	C 	0.78500 0.67350 0.51010 0.43800
C 	C 	0.10193 0.81720 0.24047 0.12200
C 	C 	0.67750 0.39790 0.12760 -0.22500
C 	C 	0.41620 0.79920 0.19340 0.11200
C 	C 	0.72010 0.23150 0.38140 -0.24700
C 	C 	0.39060 0.42140 0.16740 -0.29500
C 	C 	0.42100 0.73230 0.02570 0.20300
C 	C 	0.71110 0.48190 0.85320 0.17600
C 	C 	0.84590 0.65230 0.02680 0.40900
C 	C 	0.55360 0.13050 0.78610 0.48000
C 	C 	0.30153 0.41873 0.17696 -0.06900
C 	C 	0.92327 0.13854 0.74047 0.12200
C 	C 	0.89420 0.11700 0.70080 0.11200
C 	C 	0.07440 0.83210 0.58250 -0.26700
C 	C 	0.61150 0.28500 0.27490 0.43800
C 	C 	0.28473 0.86146 0.60193 0.12200
C 	C 	0.83410 0.19750 0.83900 0.39200
C 	C 	0.79880 0.63710 0.68550 0.36200
C 	C 	0.17350 0.88850 0.66340 0.43800
C 	C 	0.22320 0.39060 0.46920 -0.29500
C 	C 	0.19452 0.37431 0.09463 0.16000
C 	C 	0.18090 0.15410 0.30640 0.40900
C 	C 	0.75400 0.22320 0.33260 -0.29500
C 	C 	0.28473 0.42327 0.18280 0.12200
C 	C 	0.66590 0.50490 0.36340 0.39200
C 	C 	0.85850 0.99510 0.66100 0.39200
C 	C 	0.35460 0.74760 0.70720 -0.23400
C 	C 	0.66100 0.49510 0.85850 0.39200
C 	C 	0.77130 0.08080 0.51230 0.23400
C 	C 	0.13660 0.80250 0.64150 0.39200
C 	C 	0.34440 0.63050 0.07690 0.48000
C 	C 	0.18800 0.34770 0.36610 0.51800
C 	C 	0.81890 0.86720 0.69770 -0.46000
C 	C 	0.81130 0.73230 0.70660 0.20300
C 	C 	0.27990 0.51140 0.16130 -0.24700
C 	C 	0.72920 0.51810 0.37130 0.17600
C 	C 	0.79880 0.16170 0.61330 0.36200
C 	C 	0.83210 0.74960 0.75770 -0.26700
C 	C 	0.44360 0.10640 0.73200 0.18200
C 	C 	0.50210 0.08290 0.78380 -0.27500
C 	C 	0.25190 0.51570 0.59560 0.20400
C 	C 	0.10470 0.29340 0.02570 0.20300
C 	C 	0.76750 0.55360 0.92310 0.48000
C 	C 	0.62560 0.39360 0.83720 0.18200
C 	C 	0.67810 0.01840 0.36610 0.51800
C 	C 	0.20140 0.34320 0.31660 -0.45000
C 	C 	0.16950 0.36720 0.54830 -0.46000
C 	C 	0.77720 0.58380 0.88300 0.11200
C 	C 	0.32850 0.70000 0.05190 0.10000
C 	C 	0.11700 0.91620 0.22280 0.11200
C 	C 	0.24230 0.75040 0.16790 -0.26700
C 	C 	0.09880 0.27540 0.24800 0.15600
C 	C 	0.31200 0.63390 0.65230 0.51800
C 	C 	0.60580 0.29920 0.88300 0.11200
C 	C 	0.57690 0.34440 0.13050 0.48000
C 	C 	0.63280 0.68110 0.80230 -0.46000
C 	C 	0.26850 0.48860 0.64990 -0.24700
C 	C 	0.64540 0.15030 0.30650 -0.44600
C 	C 	0.15630 0.23620 0.25190 0.20400
C 	C 	0.89790 0.17750 0.62760 -0.22500
C 	C 	0.71620 0.49790 0.41710 -0.27500
C 	C 	0.96920 0.22320 0.89060 -0.29500
C 	C 	0.06850 0.80950 0.58080 0.23400
C 	C 	0.75040 0.08250 0.50810 -0.26700
C 	C 	0.07900 0.10470 0.31130 0.20300
C 	C 	0.19750 0.85850 0.36340 0.39200
C 	C 	0.32340 0.72460 0.97260 0.15600
C 	C 	0.17660 0.02740 0.27540 0.15600
C 	C 	0.28840 0.73200 0.62560 0.18200
C 	C 	0.85460 0.70720 0.74760 -0.23400
C 	C 	0.38300 0.77720 0.08380 0.11200
C 	C 	0.48160 0.82190 0.13390 0.51800
C 	C 	0.54840 0.66170 0.86290 0.36200
C 	C 	0.76380 0.24810 0.34370 0.20400
C 	C 	0.10640 0.23200 0.94360 0.18200
C 	C 	0.03080 0.25400 0.42140 -0.29500
C 	C 	0.14680 0.01810 0.28890 0.17600
C 	C 	0.36290 0.81450 0.70120 0.36200
C 	C 	0.27990 0.76850 0.61860 -0.24700
C 	C 	0.74600 0.07860 0.46920 -0.29500
C 	C 	0.78170 0.08080 0.49790 -0.27500
C 	C 	0.22920 0.37130 0.51810 0.17600
C 	C 	0.12120 0.81890 0.45170 -0.46000
C 	C 	0.27720 0.88300 0.58380 0.11200
C 	C 	0.29920 0.38300 0.10580 0.11200
C 	C 	0.88480 0.20140 0.35820 -0.45000
C 	C 	0.90011 0.80548 0.67979 0.16000
C 	C 	0.21110 0.85320 0.48190 0.17600
C 	C 	0.85820 0.88480 0.70140 -0.45000
C 	C 	0.68550 0.13710 0.79880 0.36200
C 	C 	0.79280 0.14740 0.54040 -0.23400
C 	C 	0.72970 0.10210 0.77960 -0.22500
C 	C 	0.35790 0.72920 0.71110 0.17600
C 	C 	0.32250 0.60210 0.87240 -0.22500
C 	C 	0.34370 0.74810 0.76380 0.20400
C 	C 	0.70000 0.55190 0.82850 0.10000
C 	C 	0.14210 0.28890 0.27080 0.17600
C 	C 	0.16740 0.92140 0.39060 -0.29500
C 	C 	0.02660 0.18340 0.88480 -0.45000
C 	C 	0.48160 0.65970 0.84770 0.51800
C 	C 	0.72340 0.67150 0.87150 0.10000
C 	C 	0.02660 0.84320 0.64180 -0.45000
C 	C 	0.48860 0.14990 0.76850 -0.24700
C 	C 	0.95170 0.83050 0.13280 -0.46000
C 	C 	0.79860 0.14180 0.61520 -0.45000
C 	C 	0.21390 0.36950 0.44640 0.48000
C 	C 	0.78473 0.18280 0.42327 0.12200
C 	C 	0.42327 0.68280 0.78473 0.12200
C 	C 	0.22870 0.30950 0.24100 0.23400
C 	C 	0.57673 0.31720 0.21527 0.12200
C 	C 	0.86146 0.75953 0.57673 0.12200
C 	C 	0.24960 0.91750 0.49190 -0.26700
C 	C 	0.76770 0.07900 0.47430 0.20300
C 	C 	0.34380 0.33890 0.19350 -0.44500
C 	C 	0.28840 0.55640 0.16280 0.18200
C 	C 	0.56850 0.98770 0.25900 0.23400
C 	C 	0.17150 0.94810 0.30000 0.10000
C 	C 	0.12850 0.30000 0.35190 0.10000
C 	C 	0.10210 0.27960 0.22970 -0.22500
C 	C 	0.37450 0.52680 0.18090 0.40900
C 	C 	0.14180 0.11520 0.29860 -0.45000
C 	C 	0.24760 0.85460 0.20720 -0.23400
C 	C 	0.36950 0.94640 0.71390 0.48000
C 	C 	0.94810 0.80000 0.67150 0.10000
C 	C 	0.59989 0.32021 0.19452 0.16000
C 	C 	0.41920 0.71830 0.00210 -0.27500
C 	C 	0.62120 0.45170 0.81890 -0.46000
C 	C 	0.16280 0.10640 0.37440 0.18200
C 	C 	0.79860 0.65680 0.68340 -0.45000
C 	C 	0.94640 0.21390 0.86950 0.48000
C 	C 	0.34770 0.48160 0.15970 0.51800
C 	C 	0.22970 0.45010 0.62760 -0.22500
C 	C 	0.63390 0.48160 0.32190 0.51800
C 	C 	0.64210 0.27080 0.28890 0.17600
C 	C 	0.16280 0.05640 0.28840 0.18200
C 	C 	0.65680 0.47340 0.85820 -0.45000
C 	C 	0.16950 0.80230 0.12120 -0.46000
C 	C 	0.29340 0.76770 0.18870 0.20300
C 	C 	0.20080 0.89420 0.61700 0.11200
C 	C 	0.31910 0.62550 0.97320 0.40900
C 	C 	0.36720 0.31890 0.19770 -0.46000
C 	C 	0.41920 0.72870 0.98770 0.23400
C 	C 	0.78473 0.60193 0.86146 0.12200
C 	C 	0.58380 0.38300 0.27720 0.11200
C 	C 	0.22040 0.39790 0.27030 -0.22500
C 	C 	0.52570 0.42100 0.23230 0.20300
C 	C 	0.08380 0.27720 0.38300 0.11200
C 	C 	0.57860 0.24600 0.96920 -0.29500
C 	C 	0.57440 0.58250 0.83210 -0.26700
C 	C 	0.99510 0.84970 0.15620 -0.44500
C 	C 	0.76850 0.64990 0.48860 -0.24700
C 	C 	0.97260 0.22460 0.32340 0.15600
C 	C 	0.62850 0.35190 0.30000 0.10000
C 	C 	0.13854 0.24047 0.42327 0.12200
C 	C 	0.33900 0.50490 0.14150 0.39200
C 	C 	0.39300 0.04040 0.74760 -0.23400
C 	C 	0.23620 0.75190 0.65630 0.20400
C 	C 	0.82650 0.11150 0.33660 0.43800
C 	C 	0.16790 0.91750 0.42560 -0.26700
C 	C 	0.48860 0.33870 0.22010 -0.24700
C 	C 	0.01840 0.15230 0.34030 0.51800
C 	C 	0.82850 0.77660 0.62850 0.10000
C 	C 	0.12569 0.82021 0.22032 0.16000
C 	C 	0.77080 0.62870 0.48190 0.17600
C 	C 	0.68800 0.32190 0.84030 0.51800
C 	C 	0.11150 0.27490 0.28500 0.43800
C 	C 	0.14990 0.26850 0.98860 -0.24700
C 	C 	0.75770 0.50810 0.42560 -0.26700
C 	C 	0.75953 0.68280 0.89807 0.12200
C 	C 	0.79920 0.69340 0.91620 0.11200
C 	C 	0.87543 0.17696 0.75823 -0.06900
C 	C 	0.59560 0.57990 0.84370 0.20400
C 	C 	0.30548 0.40011 0.17979 0.16000
C 	C 	0.35190 0.55190 0.72340 0.10000
C 	C 	0.34320 0.52660 0.14180 -0.45000
C 	C 	0.27080 0.78890 0.14210 0.17600
C 	C 	0.70080 0.61700 0.89420 0.11200
C 	C 	0.21527 0.39807 0.13854 0.12200
C 	C 	0.84030 0.82190 0.68800 0.51800
C 	C 	0.21527 0.81720 0.57673 0.12200
C 	C 	0.70120 0.31450 0.36290 0.36200
C 	C 	0.37880 0.54830 0.18110 -0.46000
C 	C 	0.29860 0.61520 0.14180 -0.45000
C 	C 	0.84590 0.19360 0.31910 0.40900
C 	C 	0.89300 0.74760 0.04040 -0.23400
C 	C 	0.75200 0.22460 0.90120 0.15600
C 	C 	0.27660 0.94810 0.64810 0.10000
C 	C 	0.73620 0.07990 0.48430 0.20400
C 	C 	0.51810 0.64680 0.78890 0.17600
C 	C 	0.83660 0.82650 0.61150 0.43800
C 	C 	0.36340 0.35850 0.19750 0.39200
C 	C 	0.77080 0.14210 0.78890 0.17600
C 	C 	0.76770 0.68870 0.79340 0.20300
C 	C 	0.62760 0.67750 0.89790 -0.22500
C 	C 	0.10193 0.28473 0.36146 0.12200
C 	C 	0.67350 0.01010 0.28500 0.43800
C 	C 	0.47340 0.35820 0.15680 -0.45000
C 	C 	0.65620 0.66110 0.80650 -0.44500
C 	C 	0.12850 0.82850 0.27660 0.10000
C 	C 	0.31660 0.84320 0.20140 -0.45000
C 	C 	0.69750 0.36340 0.85850 0.39200
C 	C 	0.45170 0.13280 0.83050 -0.46000
C 	C 	0.36146 0.57673 0.75953 0.12200
C 	C 	0.74177 0.61720 0.91873 -0.06900
C 	C 	0.10470 0.81130 0.57900 0.20300
C 	C 	0.24800 0.77540 0.09880 0.15600
C 	C 	0.26380 0.92010 0.51570 0.20400
C 	C 	0.27660 0.32850 0.12850 0.10000
C 	C 	0.73250 0.65560 0.78610 0.48000
C 	C 	0.30230 0.66950 0.62120 -0.46000
C 	C 	0.18800 0.84030 0.32190 0.51800
C 	C 	0.49510 0.35850 0.16100 0.39200
C 	C 	0.92560 0.16790 0.41750 -0.26700
C 	C 	0.48990 0.66340 0.77490 0.43800
C 	C 	0.88280 0.12457 0.80153 -0.06900
C 	C 	0.07673 0.21527 0.31720 0.12200
C 	C 	0.05640 0.78840 0.66280 0.18200
C 	C 	0.07673 0.86146 0.25953 0.12200
C 	C 	0.27490 0.48990 0.16340 0.43800
C 	C 	0.29880 0.61330 0.16170 0.36200
C 	C 	0.84370 0.76380 0.74810 0.20400
C 	C 	0.44810 0.67150 0.80000 0.10000
C 	C 	0.83720 0.89360 0.62560 0.18200
C 	C 	0.15230 0.84030 0.51840 0.51800
C 	C 	0.77960 0.17750 0.54990 -0.22500
C 	C 	0.08290 0.28380 0.00210 -0.27500
C 	C 	0.40120 0.75200 0.72460 0.15600
C 	C 	0.78840 0.62560 0.73200 0.18200
C 	C 	0.62550 0.15230 0.30640 0.40900
C 	C 	0.73200 0.12560 0.78840 0.18200
C 	C 	0.99790 0.78170 0.58080 -0.27500
C 	C 	0.83870 0.98860 0.72010 -0.24700
C 	C 	0.89420 0.77720 0.69340 0.11200
C 	C 	0.20000 0.82850 0.55190 0.10000
C 	C 	0.69770 0.36720 0.81890 -0.46000
C 	C 	0.57900 0.26770 0.97430 0.20300
C 	C 	0.29280 0.75240 0.64540 -0.23400
C 	C 	0.76380 0.51570 0.92010 0.20400
C 	C 	0.61330 0.95160 0.31450 0.36200
C 	C 	0.84770 0.19360 0.87450 0.40900
C 	C 	0.67150 0.30000 0.94810 0.10000
C 	C 	0.63854 0.42327 0.24047 0.12200
C 	C 	0.98990 0.77490 0.66340 0.43800
C 	C 	0.91920 0.98770 0.72870 0.23400
C 	C 	0.01230 0.77130 0.58080 0.23400
C 	C 	0.51230 0.93150 0.24100 0.23400
C 	C 	0.15410 0.80640 0.68090 0.40900
C 	C 	0.25770 0.42560 0.50810 -0.26700
C 	C 	0.04840 0.86290 0.66170 0.36200
C 	C 	0.69770 0.33050 0.37880 -0.46000
C 	C 	0.80000 0.17150 0.44810 0.10000
C 	C 	0.22320 0.83260 0.25400 -0.29500
C 	C 	0.24810 0.84370 0.26380 0.20400
C 	C 	0.34030 0.68800 0.82190 0.51800
C 	C 	0.18090 0.02680 0.37450 0.40900
C 	C 	0.71500 0.22510 0.88850 0.43800
C 	C 	0.30250 0.66590 0.66100 0.39200
C 	C 	0.35080 0.32340 0.09880 0.15600
C 	C 	0.79910 0.08080 0.58290 -0.27500
C 	C 	0.85080 0.75200 0.02740 0.15600
C 	C 	0.61330 0.66170 0.79880 0.36200
C 	C 	0.89530 0.18870 0.42100 0.20300
C 	C 	0.51010 0.33660 0.22510 0.43800
C 	C 	0.80640 0.62550 0.65230 0.40900
C 	C 	0.31200 0.67810 0.15970 0.51800
C 	C 	0.67750 0.27960 0.04990 -0.22500
C 	C 	0.23250 0.44640 0.07690 0.48000
C 	C 	0.74047 0.63854 0.92327 0.12200
C 	C 	0.82340 0.85080 0.59880 0.15600
C 	C 	0.82250 0.95010 0.72040 -0.22500
C 	C 	0.61860 0.35010 0.83870 -0.24700
C 	C 	0.91873 0.11720 0.74177 -0.06900
C 	C 	0.31890 0.62120 0.95170 -0.46000
C 	C 	0.66340 0.38850 0.17350 0.43800
C 	C 	0.47430 0.57900 0.76770 0.20300
C 	C 	0.13710 0.83830 0.45160 0.36200
C 	C 	0.08380 0.80660 0.20080 0.11200
C 	C 	0.39530 0.97430 0.70660 0.20300
C 	C 	0.16170 0.04840 0.36290 0.36200
C 	C 	0.82190 0.18800 0.34030 0.51800
C 	C 	0.92310 0.86950 0.65560 0.48000
C 	C 	0.88850 0.16340 0.67350 0.43800
C 	C 	0.09463 0.22032 0.40011 0.16000
C 	C 	0.00490 0.15030 0.84380 -0.44500
C 	C 	0.49510 0.15620 0.84970 -0.44500
C 	C 	0.37130 0.35320 0.14210 0.17600
C 	C 	0.84770 0.15970 0.48160 0.51800
C 	C 	0.22460 0.40120 0.25200 0.15600
C 	C 	0.33660 0.72510 0.01010 0.43800
C 	C 	0.83050 0.19770 0.87880 -0.46000
C 	C 	0.17350 0.28500 0.01010 0.43800
C 	C 	0.32021 0.69452 0.09989 0.16000
C 	C 	0.71830 0.50210 0.91920 -0.27500
C 	C 	0.85460 0.14740 0.60700 -0.23400
C 	C 	0.00210 0.21830 0.41920 -0.27500
N 	N 	0.41120 0.69120 0.77180 -0.28200
N 	N 	0.11200 0.20730 0.31170 -0.27500
N 	N 	0.07250 0.21870 0.39340 -0.34000
N 	N 	0.87650 0.14190 0.81160 -0.22600
N 	N 	0.44210 0.76290 0.15840 -0.32200
N 	N 	0.38800 0.68830 0.79270 -0.27500
N 	N 	0.07110 0.20340 0.90970 -0.12400
N 	N 	0.60660 0.28130 0.92750 -0.34000
N 	N 	0.82080 0.76290 0.60450 -0.32200
N 	N 	0.35810 0.62350 0.68840 -0.22600
N 	N 	0.78370 0.17920 0.44210 -0.32200
N 	N 	0.74680 0.54620 0.46420 -0.10400
N 	N 	0.31160 0.87650 0.64190 -0.22600
N 	N 	0.09530 0.19970 0.38800 -0.27500
N 	N 	0.20620 0.36680 0.28440 -0.06200
N 	N 	0.20060 0.28260 0.24680 -0.10400
N 	N 	0.14620 0.32090 0.42750 -0.34000
N 	N 	0.79380 0.16060 0.57820 -0.06200
N 	N 	0.83860 0.90970 0.70630 -0.12400
N 	N 	0.70060 0.45380 0.91800 -0.10400
N 	N 	0.94210 0.78370 0.67920 -0.32200
N 	N 	0.89340 0.82090 0.67470 -0.34000
N 	N 	0.92750 0.14620 0.82090 -0.34000
N 	N 	0.08060 0.80880 0.22000 -0.28200
N 	N 	0.42180 0.33940 0.20620 -0.06200
N 	N 	0.76540 0.14190 0.33030 -0.22600
N 	N 	0.46420 0.41800 0.21740 -0.10400
N 	N 	0.18830 0.30030 0.39560 -0.27500
N 	N 	0.32090 0.92750 0.64620 -0.34000
N 	N 	0.66970 0.31160 0.93510 -0.22600
N 	N 	0.89560 0.18830 0.80030 -0.27500
N 	N 	0.20730 0.81170 0.61200 -0.27500
N 	N 	0.40970 0.33860 0.20630 -0.12400
N 	N 	0.72000 0.63940 0.91120 -0.28200
N 	N 	0.80030 0.11200 0.40470 -0.27500
N 	N 	0.60440 0.19970 0.81170 -0.27500
N 	N 	0.27180 0.41120 0.19120 -0.28200
N 	N 	0.29380 0.71560 0.63320 -0.06200
N 	N 	0.83940 0.91760 0.63320 -0.06200
N 	N 	0.57820 0.91760 0.28440 -0.06200
N 	N 	0.30030 0.89560 0.68830 -0.27500
N 	N 	0.20340 0.79370 0.13230 -0.12400
N 	N 	0.16970 0.93510 0.31160 -0.22600
N 	N 	0.63320 0.41760 0.83940 -0.06200
N 	N 	0.81160 0.16970 0.43510 -0.22600
N 	N 	0.15840 0.89550 0.21630 -0.32200
N 	N 	0.92180 0.71560 0.08240 -0.06200
N 	N 	0.17470 0.89340 0.32090 -0.34000
N 	N 	0.28370 0.84160 0.60450 -0.32200
N 	N 	0.58880 0.28000 0.86060 -0.28200
N 	N 	0.56490 0.23460 0.87650 -0.22600
N 	N 	0.75320 0.21740 0.79940 -0.10400
N 	N 	0.71740 0.46420 0.91800 -0.10400
N 	N 	0.14190 0.83030 0.26540 -0.22600
N 	N 	0.57110 0.66140 0.86770 -0.12400
N 	N 	0.11200 0.90470 0.30030 -0.27500
N 	N 	0.14190 0.31160 0.37650 -0.22600
N 	N 	0.27180 0.86060 0.58060 -0.28200
N 	N 	0.93510 0.81160 0.66970 -0.22600
N 	N 	0.39560 0.59530 0.70730 -0.27500
N 	N 	0.20340 0.40970 0.57110 -0.12400
N 	N 	0.65840 0.21630 0.89550 -0.32200
N 	N 	0.08200 0.03580 0.28260 -0.10400
N 	N 	0.20060 0.91800 0.45380 -0.10400
N 	N 	0.70730 0.09530 0.39560 -0.27500
N 	N 	0.10660 0.92750 0.28130 -0.34000
N 	N 	0.78000 0.08880 0.36060 -0.28200
N 	N 	0.81170 0.11200 0.70730 -0.27500
N 	N 	0.78260 0.70060 0.74680 -0.10400
N 	N 	0.59030 0.66140 0.79370 -0.12400
N 	N 	0.20630 0.83860 0.40970 -0.12400
N 	N 	0.78440 0.20620 0.86680 -0.06200
N 	N 	0.71870 0.14620 0.32530 -0.34000
N 	N 	0.43510 0.66970 0.81160 -0.22600
N 	N 	0.25320 0.79940 0.21740 -0.10400
N 	N 	0.36680 0.58240 0.16060 -0.06200
N 	N 	0.91940 0.72820 0.63940 -0.28200
N 	N 	0.60660 0.32530 0.17910 -0.34000
N 	N 	0.85380 0.67910 0.57250 -0.34000
N 	N 	0.55790 0.32080 0.21630 -0.32200
N 	N 	0.91120 0.77180 0.69120 -0.28200
N 	N 	0.83860 0.92890 0.63230 -0.12400
N 	N 	0.70060 0.24680 0.28260 -0.10400
N 	N 	0.83030 0.06490 0.68840 -0.22600
N 	N 	0.80880 0.72000 0.58060 -0.28200
N 	N 	0.19970 0.88800 0.59530 -0.27500
N 	N 	0.41800 0.71740 0.96420 -0.10400
N 	N 	0.63230 0.20340 0.29370 -0.12400
N 	N 	0.84160 0.73710 0.55790 -0.32200
N 	N 	0.79370 0.16140 0.59030 -0.12400
N 	N 	0.10440 0.29270 0.40470 -0.27500
N 	N 	0.32080 0.60450 0.76290 -0.32200
N 	N 	0.18840 0.35810 0.12350 -0.22600
N 	N 	0.78260 0.08200 0.53580 -0.10400
N 	N 	0.78000 0.69120 0.91940 -0.28200
N 	N 	0.68840 0.56490 0.83030 -0.22600
N 	N 	0.58060 0.36060 0.27180 -0.28200
N 	N 	0.56490 0.33030 0.18840 -0.22600
N 	N 	0.85810 0.16970 0.73460 -0.22600
N 	N 	0.41800 0.70060 0.95380 -0.10400
N 	N 	0.13320 0.29380 0.21560 -0.06200
N 	N 	0.64620 0.42750 0.32090 -0.34000
N 	N 	0.28440 0.86680 0.20620 -0.06200
N 	N 	0.67920 0.39550 0.23710 -0.32200
N 	N 	0.61200 0.31170 0.20730 -0.27500
N 	N 	0.79660 0.59030 0.42890 -0.12400
N 	N 	0.66970 0.35810 0.23460 -0.22600
N 	N 	0.42750 0.60660 0.78130 -0.34000
N 	N 	0.20730 0.39560 0.09530 -0.27500
N 	N 	0.22820 0.41940 0.13940 -0.28200
N 	N 	0.17470 0.28130 0.35380 -0.34000
N 	N 	0.29660 0.86770 0.20630 -0.12400
N 	N 	0.58880 0.30880 0.22820 -0.28200
N 	N 	0.87650 0.73460 0.56490 -0.22600
N 	N 	0.08240 0.21560 0.92180 -0.06200
N 	N 	0.58240 0.66060 0.86680 -0.06200
N 	N 	0.95380 0.75320 0.03580 -0.10400
N 	N 	0.29370 0.59030 0.16140 -0.12400
N 	N 	0.08200 0.04620 0.29940 -0.10400
N 	N 	0.29940 0.75320 0.71740 -0.10400
N 	N 	0.57250 0.39340 0.21870 -0.34000
N 	N 	0.31160 0.43510 0.16970 -0.22600
N 	N 	0.36770 0.57110 0.16140 -0.12400
N 	N 	0.80880 0.08880 0.72820 -0.28200
N 	N 	0.86680 0.70620 0.78440 -0.06200
N 	N 	0.69120 0.41940 0.28000 -0.28200
N 	N 	0.44210 0.67920 0.78370 -0.32200
N 	N 	0.67920 0.28370 0.94210 -0.32200
N 	N 	0.22000 0.91120 0.63940 -0.28200
N 	N 	0.16140 0.09030 0.29370 -0.12400
N 	N 	0.90970 0.70340 0.07110 -0.12400
N 	N 	0.68840 0.12350 0.35810 -0.22600
N 	N 	0.17920 0.94210 0.28370 -0.32200
N 	N 	0.61200 0.30030 0.90470 -0.27500
N 	N 	0.70630 0.29660 0.36770 -0.12400
N 	N 	0.06490 0.18840 0.33030 -0.22600
N 	N 	0.29660 0.42890 0.59030 -0.12400
N 	N 	0.91760 0.78440 0.07820 -0.06200
N 	N 	0.73460 0.66970 0.85810 -0.22600
N 	N 	0.79270 0.18830 0.38800 -0.27500
N 	N 	0.35380 0.57250 0.67910 -0.34000
N 	N 	0.89550 0.71630 0.65840 -0.32200
N 	N 	0.40470 0.61200 0.80030 -0.27500
N 	N 	0.83940 0.92180 0.70620 -0.06200
N 	N 	0.34160 0.78370 0.10450 -0.32200
N 	N 	0.05790 0.84160 0.23710 -0.32200
N 	N 	0.21630 0.82080 0.55790 -0.32200
N 	N 	0.05790 0.21630 0.32080 -0.32200
N 	N 	0.78370 0.60450 0.84160 -0.32200
N 	N 	0.28000 0.91940 0.69120 -0.28200
N 	N 	0.08880 0.86060 0.28000 -0.28200
N 	N 	0.21630 0.39550 0.15840 -0.32200
N 	N 	0.42750 0.82090 0.14620 -0.34000
N 	N 	0.40970 0.07110 0.70340 -0.12400
N 	N 	0.29370 0.70340 0.63230 -0.12400
N 	N 	0.16060 0.08240 0.36680 -0.06200
N 	N 	0.78440 0.57820 0.41760 -0.06200
N 	N 	0.21740 0.91800 0.46420 -0.10400
N 	N 	0.32530 0.67910 0.10660 -0.34000
N 	N 	0.89340 0.07250 0.71870 -0.34000
N 	N 	0.33030 0.64190 0.76540 -0.22600
N 	N 	0.33940 0.70620 0.92180 -0.06200
N 	N 	0.45380 0.41800 0.20060 -0.10400
N 	N 	0.07110 0.86770 0.66140 -0.12400
N 	N 	0.29270 0.38800 0.18830 -0.27500
N 	N 	0.37650 0.81160 0.14190 -0.22600
N 	N 	0.42180 0.08240 0.71560 -0.06200
N 	N 	0.23460 0.37650 0.06490 -0.22600
N 	N 	0.36060 0.58880 0.78000 -0.28200
N 	N 	0.09030 0.79370 0.66140 -0.12400
N 	N 	0.20620 0.83940 0.42180 -0.06200
N 	N 	0.82090 0.64620 0.92750 -0.34000
N 	N 	0.54620 0.96420 0.24680 -0.10400
N 	N 	0.30880 0.72820 0.08880 -0.28200
N 	N 	0.59530 0.20730 0.89560 -0.27500
N 	N 	0.46420 0.04620 0.74680 -0.10400
N 	N 	0.90970 0.20630 0.33860 -0.12400
N 	N 	0.63940 0.41120 0.22000 -0.28200
N 	N 	0.57110 0.90970 0.20340 -0.12400
N 	N 	0.07820 0.28440 0.91760 -0.06200
N 	N 	0.71740 0.25320 0.29940 -0.10400
N 	N 	0.91760 0.13320 0.33940 -0.06200
N 	N 	0.96420 0.21740 0.41800 -0.10400
N 	N 	0.71870 0.57250 0.89340 -0.34000
N 	N 	0.85810 0.68840 0.62350 -0.22600
N 	N 	0.79940 0.08200 0.54620 -0.10400
N 	N 	0.07250 0.85380 0.17910 -0.34000
N 	N 	0.71630 0.15840 0.39550 -0.32200
N 	N 	0.78130 0.67470 0.85380 -0.34000
N 	N 	0.68830 0.39560 0.30030 -0.27500
N 	N 	0.72000 0.08060 0.30880 -0.28200
N 	N 	0.33030 0.68840 0.06490 -0.22600
N 	N 	0.06490 0.87650 0.23460 -0.22600
N 	N 	0.86770 0.16140 0.57110 -0.12400
N 	N 	0.54620 0.58200 0.79940 -0.10400
N 	N 	0.28260 0.53580 0.08200 -0.10400
N 	N 	0.71560 0.13320 0.79380 -0.06200
N 	N 	0.75320 0.53580 0.45380 -0.10400
N 	N 	0.21870 0.89340 0.57250 -0.34000
N 	N 	0.59530 0.38800 0.19970 -0.27500
N 	N 	0.96420 0.74680 0.04620 -0.10400
N 	N 	0.76290 0.10450 0.32080 -0.32200
N 	N 	0.58060 0.22000 0.80880 -0.28200
N 	N 	0.13940 0.91940 0.22820 -0.28200
N 	N 	0.71630 0.55790 0.82080 -0.32200
N 	N 	0.31170 0.60440 0.69970 -0.27500
N 	N 	0.21740 0.29940 0.25320 -0.10400
N 	N 	0.17920 0.23710 0.39550 -0.32200
N 	N 	0.28130 0.42750 0.10660 -0.34000
N 	N 	0.91800 0.96420 0.71740 -0.10400
N 	N 	0.91120 0.13940 0.72000 -0.28200
N 	N 	0.72820 0.13940 0.41940 -0.28200
N 	N 	0.89550 0.17920 0.73710 -0.32200
N 	N 	0.36680 0.78440 0.70620 -0.06200
N 	N 	0.66140 0.29370 0.09030 -0.12400
N 	N 	0.63320 0.21560 0.29380 -0.06200
N 	N 	0.62350 0.18840 0.85810 -0.22600
N 	N 	0.86770 0.70630 0.79660 -0.12400
N 	N 	0.28440 0.41760 0.57820 -0.06200
N 	N 	0.30030 0.40470 0.11200 -0.27500
N 	N 	0.72820 0.58880 0.80880 -0.28200
N 	N 	0.32530 0.64620 0.71870 -0.34000
N 	N 	0.39340 0.67470 0.82090 -0.34000
N 	N 	0.18830 0.88800 0.29270 -0.27500
N 	N 	0.70630 0.40970 0.83860 -0.12400
N 	N 	0.30880 0.58060 0.72000 -0.28200
N 	N 	0.22000 0.30880 0.08060 -0.28200
N 	N 	0.69970 0.10440 0.31170 -0.27500
N 	N 	0.73710 0.67920 0.89550 -0.32200
N 	N 	0.68830 0.29270 0.88800 -0.27500
N 	N 	0.35810 0.73460 0.16970 -0.22600
N 	N 	0.26540 0.93510 0.62350 -0.22600
N 	N 	0.04620 0.79940 0.58200 -0.10400
N 	N 	0.32090 0.39340 0.17470 -0.34000
N 	N 	0.65840 0.44210 0.26290 -0.32200
N 	N 	0.53580 0.58200 0.78260 -0.10400
N 	N 	0.85380 0.17470 0.78130 -0.34000
N 	N 	0.19970 0.31170 0.10440 -0.27500
N 	N 	0.37650 0.56490 0.73460 -0.22600
N 	N 	0.39560 0.80030 0.18830 -0.27500
N 	N 	0.64190 0.37650 0.31160 -0.22600
N 	N 	0.26290 0.94210 0.65840 -0.32200
N 	N 	0.10440 0.81170 0.19970 -0.27500
N 	N 	0.53580 0.95380 0.25320 -0.10400
N 	N 	0.23710 0.89550 0.67920 -0.32200
N 	N 	0.33860 0.70630 0.90970 -0.12400
N 	N 	0.28370 0.44210 0.17920 -0.32200
N 	N 	0.70730 0.61200 0.81170 -0.27500
N 	N 	0.60450 0.26290 0.82080 -0.32200
N 	N 	0.81170 0.69970 0.60440 -0.27500
N 	N 	0.84160 0.10450 0.78370 -0.32200
N 	N 	0.29380 0.57820 0.16060 -0.06200
N 	N 	0.58240 0.92180 0.21560 -0.06200
N 	N 	0.03580 0.25320 0.95380 -0.10400
N 	N 	0.86060 0.78000 0.58880 -0.28200
N 	N 	0.21560 0.79380 0.13320 -0.06200
N 	N 	0.58200 0.28260 0.03580 -0.10400
N 	N 	0.63940 0.22820 0.91940 -0.28200
N 	N 	0.86060 0.08060 0.77180 -0.28200
N 	N 	0.70340 0.57110 0.40970 -0.12400
N 	N 	0.15840 0.26290 0.44210 -0.32200
N 	N 	0.57820 0.66060 0.79380 -0.06200
N 	N 	0.28130 0.85380 0.67470 -0.34000
N 	N 	0.41940 0.63940 0.72820 -0.28200
N 	N 	0.31170 0.70730 0.11200 -0.27500
N 	N 	0.91800 0.95380 0.70060 -0.10400
N 	N 	0.39550 0.73710 0.17920 -0.32200
N 	N 	0.86680 0.16060 0.58240 -0.06200
N 	N 	0.14620 0.82530 0.21870 -0.34000
N 	N 	0.35380 0.78130 0.17470 -0.34000
N 	N 	0.21870 0.32530 0.14620 -0.34000
N 	N 	0.13230 0.83860 0.42890 -0.12400
N 	N 	0.13320 0.83940 0.41760 -0.06200
N 	N 	0.38800 0.69970 0.09530 -0.27500
N 	N 	0.69120 0.27180 0.91120 -0.28200
N 	N 	0.34160 0.55790 0.73710 -0.32200
N 	N 	0.91940 0.19120 0.78000 -0.28200
N 	N 	0.33860 0.63230 0.92890 -0.12400
N 	N 	0.92180 0.20620 0.33940 -0.06200
N 	N 	0.42890 0.09030 0.79660 -0.12400
N 	N 	0.92890 0.13230 0.33860 -0.12400
N 	N 	0.25320 0.45380 0.53580 -0.10400
N 	N 	0.90470 0.80030 0.61200 -0.27500
N 	N 	0.81160 0.64190 0.87650 -0.22600
N 	N 	0.43510 0.76540 0.12350 -0.22600
N 	N 	0.12350 0.85810 0.18840 -0.22600
N 	N 	0.32080 0.71630 0.05790 -0.32200
N 	N 	0.66140 0.36770 0.07110 -0.12400
N 	N 	0.89560 0.70730 0.59530 -0.27500
N 	N 	0.92890 0.79660 0.09030 -0.12400
N 	N 	0.13940 0.22000 0.41120 -0.28200
N 	N 	0.58200 0.29940 0.04620 -0.10400
N 	N 	0.71560 0.58240 0.42180 -0.06200
N 	N 	0.24680 0.46420 0.54620 -0.10400
N 	N 	0.60450 0.34160 0.28370 -0.32200
N 	N 	0.88800 0.79270 0.68830 -0.27500
N 	N 	0.16970 0.23460 0.35810 -0.22600
N 	N 	0.79380 0.63320 0.71560 -0.06200
N 	N 	0.40470 0.79270 0.10440 -0.27500
N 	N 	0.42890 0.33860 0.13230 -0.12400
N 	N 	0.19120 0.28000 0.41940 -0.28200
N 	N 	0.28260 0.74680 0.70060 -0.10400
N 	N 	0.17910 0.35380 0.07250 -0.34000
N 	N 	0.39340 0.71870 0.07250 -0.34000
N 	N 	0.16060 0.07820 0.29380 -0.06200
N 	N 	0.21560 0.42180 0.58240 -0.06200
N 	N 	0.41940 0.78000 0.19120 -0.28200
N 	N 	0.17910 0.82530 0.60660 -0.34000
N 	N 	0.18840 0.83030 0.56490 -0.22600
N 	N 	0.29270 0.90470 0.60440 -0.27500
N 	N 	0.23460 0.85810 0.66970 -0.22600
N 	N 	0.66060 0.36680 0.08240 -0.06200
N 	N 	0.70340 0.13230 0.79370 -0.12400
N 	N 	0.74680 0.20060 0.78260 -0.10400
N 	N 	0.67470 0.35380 0.28130 -0.34000
N 	N 	0.66060 0.29380 0.07820 -0.06200
N 	N 	0.26290 0.32080 0.10450 -0.32200
N 	N 	0.10660 0.17910 0.32530 -0.34000
N 	N 	0.76540 0.62350 0.93510 -0.22600
N 	N 	0.08060 0.27180 0.36060 -0.28200
N 	N 	0.16140 0.07110 0.36770 -0.12400
N 	N 	0.92750 0.78130 0.60660 -0.34000
N 	N 	0.36770 0.79660 0.70630 -0.12400
N 	N 	0.73710 0.05790 0.34160 -0.32200
N 	N 	0.82090 0.17470 0.39340 -0.34000
N 	N 	0.77180 0.58060 0.86060 -0.28200
N 	N 	0.57250 0.17910 0.85380 -0.34000
N 	N 	0.88800 0.09530 0.69970 -0.27500
N 	N 	0.19120 0.91120 0.27180 -0.28200
N 	N 	0.83030 0.76540 0.64190 -0.22600
N 	N 	0.26540 0.33030 0.14190 -0.22600
N 	N 	0.90470 0.10440 0.79270 -0.27500
N 	N 	0.79660 0.20630 0.86770 -0.12400
N 	N 	0.63230 0.42890 0.83860 -0.12400
N 	N 	0.45380 0.03580 0.75320 -0.10400
N 	N 	0.13230 0.29370 0.20340 -0.12400
N 	N 	0.79370 0.63230 0.70340 -0.12400
N 	N 	0.82530 0.10660 0.67910 -0.34000
N 	N 	0.24680 0.78260 0.20060 -0.10400
N 	N 	0.10450 0.82080 0.26290 -0.32200
N 	N 	0.41760 0.33940 0.13320 -0.06200
N 	N 	0.64620 0.21870 0.82530 -0.34000
N 	N 	0.67470 0.32090 0.89340 -0.34000
N 	N 	0.80030 0.68830 0.89560 -0.27500
N 	N 	0.08880 0.22820 0.30880 -0.28200
N 	N 	0.10450 0.28370 0.34160 -0.32200
N 	N 	0.94210 0.15840 0.76290 -0.32200
N 	N 	0.55790 0.23710 0.84160 -0.32200
N 	N 	0.95380 0.20060 0.41800 -0.10400
N 	N 	0.33940 0.63320 0.91760 -0.06200
N 	N 	0.82080 0.05790 0.71630 -0.32200
N 	N 	0.76290 0.65840 0.94210 -0.32200
N 	N 	0.69970 0.59530 0.88800 -0.27500
N 	N 	0.08240 0.86680 0.66060 -0.06200
N 	N 	0.23710 0.34160 0.05790 -0.32200
N 	N 	0.77180 0.19120 0.41120 -0.28200
N 	N 	0.78130 0.10660 0.42750 -0.34000
N 	N 	0.39550 0.65840 0.71630 -0.32200
N 	N 	0.93510 0.12350 0.76540 -0.22600
N 	N 	0.04620 0.24680 0.96420 -0.10400
N 	N 	0.07820 0.79380 0.66060 -0.06200
N 	N 	0.20630 0.36770 0.29660 -0.12400
N 	N 	0.12350 0.26540 0.43510 -0.22600
N 	N 	0.79940 0.71740 0.75320 -0.10400
N 	N 	0.09030 0.29660 0.92890 -0.12400
N 	N 	0.79270 0.60440 0.90470 -0.27500
N 	N 	0.41120 0.72000 0.13940 -0.28200
N 	N 	0.36060 0.77180 0.08060 -0.28200
N 	N 	0.09530 0.89560 0.20730 -0.27500
N 	N 	0.67910 0.07250 0.35380 -0.34000
N 	N 	0.41760 0.07820 0.78440 -0.06200
N 	N 	0.29940 0.54620 0.08200 -0.10400
N 	N 	0.03580 0.78260 0.58200 -0.10400
N 	N 	0.60440 0.40470 0.29270 -0.27500
N 	N 	0.82530 0.71870 0.64620 -0.34000
N 	N 	0.67910 0.60660 0.82530 -0.34000
N 	N 	0.73460 0.06490 0.37650 -0.22600
N 	N 	0.59030 0.92890 0.29660 -0.12400
N 	N 	0.22820 0.80880 0.58880 -0.28200
N 	N 	0.64190 0.26540 0.83030 -0.22600
N 	N 	0.70620 0.28440 0.36680 -0.06200
N 	N 	0.28000 0.36060 0.08880 -0.28200
N 	N 	0.70620 0.42180 0.83940 -0.06200
N 	N 	0.62350 0.43510 0.26540 -0.22600
O 	O 	0.35440 0.92920 0.69180 -0.52800
O 	O 	0.32470 0.35120 0.12830 -0.34100
O 	O 	0.30820 0.57080 0.64560 -0.52800
O 	O 	0.81490 0.17720 0.69650 -0.35300
O 	O 	0.07480 0.14560 0.33740 -0.52800
O 	O 	0.48290 0.80720 0.21690 -0.52300
O 	O 	0.22290 0.37170 0.19640 -0.34100
O 	O 	0.83740 0.76260 0.69180 -0.52800
O 	O 	0.27710 0.47350 0.14880 -0.34100
O 	O 	0.11840 0.30350 0.48070 -0.35300
O 	O 	0.82280 0.01930 0.63770 -0.35300
O 	O 	0.67570 0.26600 0.98290 -0.52300
O 	O 	0.71690 0.48290 0.30720 -0.52300
O 	O 	0.98290 0.76600 0.67570 -0.52300
O 	O 	0.80720 0.09030 0.32430 -0.52300
O 	O 	0.87280 0.18990 0.83210 -0.52700
O 	O 	0.26600 0.48290 0.17570 -0.52300
O 	O 	0.73400 0.21690 0.40970 -0.52300
O 	O 	0.62830 0.30360 0.27710 -0.34100
O 	O 	0.40970 0.69280 0.17570 -0.52300
O 	O 	0.66790 0.54070 0.85780 -0.52700
O 	O 	0.69650 0.67720 0.81490 -0.35300
O 	O 	0.42920 0.85440 0.19180 -0.52800
O 	O 	0.51710 0.32430 0.23400 -0.52300
O 	O 	0.80360 0.12830 0.77710 -0.34100
O 	O 	0.66790 0.12720 0.31010 -0.52700
O 	O 	0.33210 0.87280 0.68990 -0.52700
O 	O 	0.17530 0.87170 0.64880 -0.34100
O 	O 	0.83740 0.07480 0.64560 -0.52800
O 	O 	0.76600 0.17570 0.48290 -0.52300
O 	O 	0.32280 0.63770 0.01930 -0.35300
O 	O 	0.30820 0.73740 0.16260 -0.52800
O 	O 	0.30720 0.32430 0.09030 -0.52300
O 	O 	0.18990 0.85780 0.31710 -0.52700
O 	O 	0.14560 0.30820 0.07080 -0.52800
O 	O 	0.69180 0.42920 0.35440 -0.52800
O 	O 	0.63610 0.27110 0.21180 -0.33600
O 	O 	0.71180 0.07570 0.44070 -0.33600
O 	O 	0.31710 0.35780 0.18990 -0.52700
O 	O 	0.28820 0.92430 0.55930 -0.33600
O 	O 	0.28310 0.76600 0.09030 -0.52300
O 	O 	0.18290 0.37280 0.04070 -0.52700
O 	O 	0.05120 0.25000 0.30120 -0.57900
O 	O 	0.42430 0.63610 0.86500 -0.33600
O 	O 	0.19280 0.28310 0.01710 -0.52300
O 	O 	0.69880 0.44880 0.25000 -0.57900
O 	O 	0.54070 0.35780 0.16790 -0.52700
O 	O 	0.67530 0.02650 0.30360 -0.34100
O 	O 	0.82430 0.80720 0.59030 -0.52300
O 	O 	0.86390 0.07570 0.63500 -0.33600
O 	O 	0.30360 0.77710 0.12830 -0.34100
O 	O 	0.95930 0.83210 0.64220 -0.52700
O 	O 	0.48070 0.80350 0.11840 -0.35300
O 	O 	0.82470 0.69640 0.97350 -0.34100
O 	O 	0.17570 0.19280 0.40970 -0.52300
O 	O 	0.57570 0.21180 0.94070 -0.33600
O 	O 	0.27110 0.55930 0.63500 -0.33600
O 	O 	0.97350 0.19640 0.82470 -0.34100
O 	O 	0.23400 0.82430 0.51710 -0.52300
O 	O 	0.33740 0.69180 0.76260 -0.52800
O 	O 	0.64220 0.31010 0.18290 -0.52700
O 	O 	0.17720 0.98070 0.36230 -0.35300
O 	O 	0.72290 0.19640 0.37170 -0.34100
O 	O 	0.30350 0.32280 0.18510 -0.35300
O 	O 	0.38160 0.51930 0.69650 -0.35300
O 	O 	0.77710 0.62830 0.80360 -0.34100
O 	O 	0.45930 0.64220 0.83210 -0.52700
O 	O 	0.37170 0.67530 0.14880 -0.34100
O 	O 	0.77110 0.63500 0.55930 -0.33600
O 	O 	0.57570 0.36390 0.13500 -0.33600
O 	O 	0.02650 0.80360 0.17530 -0.34100
O 	O 	0.36390 0.63500 0.07570 -0.33600
O 	O 	0.30120 0.75000 0.05120 -0.57900
O 	O 	0.07570 0.94070 0.21180 -0.33600
O 	O 	0.47350 0.64880 0.77710 -0.34100
O 	O 	0.90970 0.73400 0.71690 -0.52300
O 	O 	0.23400 0.40970 0.21690 -0.52300
O 	O 	0.78310 0.09030 0.76600 -0.52300
O 	O 	0.80360 0.67530 0.52650 -0.34100
O 	O 	0.21180 0.77110 0.63610 -0.33600
O 	O 	0.28820 0.36390 0.22890 -0.33600
O 	O 	0.17720 0.19650 0.31490 -0.35300
O 	O 	0.07480 0.92920 0.23740 -0.52800
O 	O 	0.63500 0.05930 0.27110 -0.33600
O 	O 	0.57480 0.33740 0.14560 -0.52800
O 	O 	0.92520 0.85440 0.66260 -0.52800
O 	O 	0.57080 0.14560 0.80820 -0.52800
O 	O 	0.85440 0.69180 0.92920 -0.52800
O 	O 	0.80120 0.75000 0.55120 -0.57900
O 	O 	0.26260 0.92520 0.57080 -0.52800
O 	O 	0.37170 0.69640 0.72290 -0.34100
O 	O 	0.25000 0.80120 0.55120 -0.57900
O 	O 	0.55930 0.13500 0.77110 -0.33600
O 	O 	0.87280 0.68290 0.54070 -0.52700
O 	O 	0.21180 0.44070 0.07570 -0.33600
O 	O 	0.32470 0.97350 0.69640 -0.34100
O 	O 	0.16790 0.85780 0.54070 -0.52700
O 	O 	0.16790 0.31010 0.12720 -0.52700
O 	O 	0.94880 0.19880 0.75000 -0.57900
O 	O 	0.76260 0.57080 0.92520 -0.52800
O 	O 	0.73400 0.51710 0.82430 -0.52300
O 	O 	0.83210 0.68990 0.87280 -0.52700
O 	O 	0.12720 0.81010 0.16790 -0.52700
O 	O 	0.42920 0.57480 0.73740 -0.52800
O 	O 	0.48290 0.67570 0.76600 -0.52300
O 	O 	0.05930 0.28820 0.42430 -0.33600
O 	O 	0.19650 0.38160 0.01930 -0.35300
O 	O 	0.19180 0.35440 0.42920 -0.52800
O 	O 	0.36230 0.88160 0.68510 -0.35300
O 	O 	0.94880 0.75000 0.69880 -0.57900
O 	O 	0.62720 0.45930 0.31710 -0.52700
O 	O 	0.26260 0.33740 0.19180 -0.52800
O 	O 	0.86230 0.68510 0.88160 -0.35300
O 	O 	0.52650 0.17530 0.80360 -0.34100
O 	O 	0.22890 0.36500 0.44070 -0.33600
O 	O 	0.61840 0.13770 0.81490 -0.35300
O 	O 	0.19880 0.25000 0.44880 -0.57900
O 	O 	0.97350 0.77710 0.64880 -0.34100
O 	O 	0.36500 0.94070 0.72890 -0.33600
O 	O 	0.92430 0.86500 0.63610 -0.33600
O 	O 	0.07570 0.13500 0.36390 -0.33600
O 	O 	0.31010 0.62720 0.66790 -0.52700
O 	O 	0.92920 0.73740 0.57480 -0.52800
O 	O 	0.30360 0.52650 0.67530 -0.34100
O 	O 	0.98070 0.86230 0.67720 -0.35300
O 	O 	0.63610 0.36500 0.92430 -0.33600
O 	O 	0.83210 0.14220 0.45930 -0.52700
O 	O 	0.88160 0.18510 0.86230 -0.35300
O 	O 	0.85780 0.81710 0.68990 -0.52700
O 	O 	0.44070 0.57570 0.71180 -0.33600
O 	O 	0.69280 0.67570 0.90970 -0.52300
O 	O 	0.81010 0.14220 0.68290 -0.52700
O 	O 	0.57080 0.42520 0.26260 -0.52800
O 	O 	0.64560 0.07080 0.30820 -0.52800
O 	O 	0.69280 0.01710 0.28310 -0.52300
O 	O 	0.98070 0.11840 0.80350 -0.35300
O 	O 	0.82280 0.80350 0.68510 -0.35300
O 	O 	0.67570 0.40970 0.19280 -0.52300
O 	O 	0.75000 0.05120 0.30120 -0.57900
O 	O 	0.31490 0.61840 0.63770 -0.35300
O 	O 	0.57480 0.23740 0.92920 -0.52800
O 	O 	0.78820 0.22890 0.36390 -0.33600
O 	O 	0.30720 0.98290 0.71690 -0.52300
O 	O 	0.17530 0.30360 0.02650 -0.34100
O 	O 	0.05120 0.80120 0.25000 -0.57900
O 	O 	0.14880 0.97350 0.27710 -0.34100
O 	O 	0.18290 0.81010 0.64220 -0.52700
O 	O 	0.31490 0.69650 0.17720 -0.35300
O 	O 	0.17570 0.98290 0.26600 -0.52300
O 	O 	0.64880 0.27710 0.97350 -0.34100
O 	O 	0.87170 0.14880 0.67530 -0.34100
O 	O 	0.21690 0.30720 0.48290 -0.52300
O 	O 	0.42520 0.66260 0.85440 -0.52800
O 	O 	0.80350 0.61840 0.98070 -0.35300
O 	O 	0.35440 0.42520 0.16260 -0.52800
O 	O 	0.18510 0.82280 0.30350 -0.35300
O 	O 	0.11840 0.81490 0.13770 -0.35300
O 	O 	0.69640 0.22290 0.87170 -0.34100
O 	O 	0.92920 0.19180 0.85440 -0.52800
O 	O 	0.68990 0.31710 0.85780 -0.52700
O 	O 	0.22290 0.85120 0.52650 -0.34100
O 	O 	0.31010 0.68290 0.14220 -0.52700
O 	O 	0.68290 0.04070 0.37280 -0.52700
O 	O 	0.69640 0.47350 0.32470 -0.34100
O 	O 	0.68990 0.37280 0.33210 -0.52700
O 	O 	0.47350 0.82470 0.19640 -0.34100
O 	O 	0.76260 0.19180 0.33740 -0.52800
O 	O 	0.81710 0.62720 0.95930 -0.52700
O 	O 	0.73740 0.66260 0.80820 -0.52800
O 	O 	0.59030 0.30720 0.82430 -0.52300
O 	O 	0.52650 0.35120 0.22290 -0.34100
O 	O 	0.66260 0.35440 0.92520 -0.52800
O 	O 	0.62720 0.16790 0.81010 -0.52700
O 	O 	0.81710 0.18990 0.35780 -0.52700
O 	O 	0.64880 0.37170 0.17530 -0.34100
O 	O 	0.44880 0.75000 0.19880 -0.57900
O 	O 	0.09030 0.26600 0.28310 -0.52300
O 	O 	0.04070 0.16790 0.35780 -0.52700
O 	O 	0.86390 0.78820 0.72890 -0.33600
O 	O 	0.80820 0.16260 0.73740 -0.52800
O 	O 	0.45930 0.81710 0.12720 -0.52700
O 	O 	0.01710 0.23400 0.32430 -0.52300
O 	O 	0.16260 0.92520 0.35440 -0.52800
O 	O 	0.07080 0.80820 0.14560 -0.52800
O 	O 	0.61840 0.48070 0.30350 -0.35300
O 	O 	0.01710 0.78310 0.19280 -0.52300
O 	O 	0.67720 0.31490 0.19650 -0.35300
O 	O 	0.98290 0.21690 0.80720 -0.52300
O 	O 	0.19640 0.32470 0.47350 -0.34100
O 	O 	0.55120 0.30120 0.25000 -0.57900
O 	O 	0.37280 0.54070 0.68290 -0.52700
O 	O 	0.85780 0.04070 0.66790 -0.52700
O 	O 	0.68290 0.64220 0.81010 -0.52700
O 	O 	0.82430 0.01710 0.73400 -0.52300
O 	O 	0.85120 0.02650 0.72290 -0.34100
O 	O 	0.87170 0.72290 0.69640 -0.34100
O 	O 	0.51930 0.32280 0.13770 -0.35300
O 	O 	0.63500 0.57570 0.86390 -0.33600
O 	O 	0.13770 0.31490 0.11840 -0.35300
O 	O 	0.71180 0.63610 0.77110 -0.33600
O 	O 	0.69180 0.26260 0.83740 -0.52800
O 	O 	0.27710 0.80360 0.62830 -0.34100
O 	O 	0.13500 0.86390 0.57570 -0.33600
O 	O 	0.09030 0.82430 0.30720 -0.52300
O 	O 	0.01930 0.13770 0.32280 -0.35300
O 	O 	0.51930 0.19650 0.88160 -0.35300
O 	O 	0.25000 0.30120 0.05120 -0.57900
O 	O 	0.21690 0.90970 0.23400 -0.52300
O 	O 	0.36390 0.72890 0.78820 -0.33600
O 	O 	0.72890 0.28820 0.86390 -0.33600
O 	O 	0.82470 0.12830 0.35120 -0.34100
O 	O 	0.35120 0.72290 0.02650 -0.34100
O 	O 	0.19640 0.87170 0.22290 -0.34100
O 	O 	0.37280 0.83210 0.18990 -0.52700
O 	O 	0.55930 0.42430 0.28820 -0.33600
O 	O 	0.77710 0.14880 0.47350 -0.34100
O 	O 	0.19280 0.90970 0.67570 -0.52300
O 	O 	0.14880 0.17530 0.37170 -0.34100
O 	O 	0.94070 0.22890 0.86500 -0.33600
O 	O 	0.86230 0.17720 0.48070 -0.35300
O 	O 	0.35120 0.62830 0.82470 -0.34100
O 	O 	0.69880 0.25000 0.94880 -0.57900
O 	O 	0.80720 0.71690 0.98290 -0.52300
O 	O 	0.14220 0.95930 0.33210 -0.52700
O 	O 	0.33740 0.64560 0.07480 -0.52800
O 	O 	0.72290 0.52650 0.85120 -0.34100
O 	O 	0.12830 0.27710 0.30360 -0.34100
O 	O 	0.92430 0.05930 0.78820 -0.33600
O 	O 	0.75000 0.69880 0.94880 -0.57900
O 	O 	0.76600 0.59030 0.78310 -0.52300
O 	O 	0.90970 0.17570 0.69280 -0.52300
O 	O 	0.63770 0.11840 0.31490 -0.35300
O 	O 	0.35780 0.66790 0.04070 -0.52700
O 	O 	0.32430 0.73400 0.01710 -0.52300
O 	O 	0.66260 0.30820 0.23740 -0.52800
O 	O 	0.13610 0.92430 0.36500 -0.33600
O 	O 	0.92520 0.07080 0.76260 -0.52800
O 	O 	0.67530 0.64880 0.87170 -0.34100
O 	O 	0.32280 0.68510 0.80350 -0.35300
O 	O 	0.73740 0.07480 0.42920 -0.52800
O 	O 	0.40970 0.71690 0.73400 -0.52300
O 	O 	0.25000 0.94880 0.69880 -0.57900
O 	O 	0.12830 0.85120 0.32470 -0.34100
O 	O 	0.95930 0.12720 0.81710 -0.52700
O 	O 	0.18510 0.36230 0.38160 -0.35300
O 	O 	0.77110 0.13610 0.71180 -0.33600
O 	O 	0.63770 0.51930 0.82280 -0.35300
O 	O 	0.01930 0.88160 0.19650 -0.35300
O 	O 	0.28310 0.51710 0.69280 -0.52300
O 	O 	0.13610 0.21180 0.27110 -0.33600
O 	O 	0.48070 0.67720 0.86230 -0.35300
O 	O 	0.68510 0.38160 0.36230 -0.35300
O 	O 	0.51710 0.19280 0.78310 -0.52300
O 	O 	0.23740 0.42920 0.07480 -0.52800
O 	O 	0.64220 0.33210 0.95930 -0.52700
O 	O 	0.64560 0.57480 0.83740 -0.52800
O 	O 	0.67720 0.36230 0.98070 -0.35300
O 	O 	0.38160 0.86230 0.18510 -0.35300
O 	O 	0.14560 0.83740 0.57480 -0.52800
O 	O 	0.72890 0.44070 0.36500 -0.33600
O 	O 	0.30350 0.98070 0.61840 -0.35300
O 	O 	0.68510 0.30350 0.82280 -0.35300
O 	O 	0.78310 0.69280 0.51710 -0.52300
O 	O 	0.30120 0.55120 0.75000 -0.57900
O 	O 	0.16260 0.23740 0.30820 -0.52800
O 	O 	0.19880 0.94880 0.25000 -0.57900
O 	O 	0.75000 0.55120 0.80120 -0.57900
O 	O 	0.44070 0.86500 0.22890 -0.33600
O 	O 	0.78820 0.55930 0.92430 -0.33600
O 	O 	0.19180 0.83740 0.26260 -0.52800
O 	O 	0.55120 0.25000 0.80120 -0.57900
O 	O 	0.31710 0.95930 0.62720 -0.52700
O 	O 	0.27110 0.71180 0.13610 -0.33600
O 	O 	0.02650 0.22290 0.35120 -0.34100
O 	O 	0.13770 0.82280 0.51930 -0.35300
O 	O 	0.69650 0.01930 0.38160 -0.35300
O 	O 	0.62830 0.32470 0.85120 -0.34100
O 	O 	0.71690 0.23400 0.90970 -0.52300
O 	O 	0.85440 0.16260 0.42520 -0.52800
O 	O 	0.42430 0.78820 0.05930 -0.33600
O 	O 	0.81010 0.66790 0.62720 -0.52700
O 	O 	0.22890 0.86390 0.28820 -0.33600
O 	O 	0.05930 0.77110 0.13500 -0.33600
O 	O 	0.80350 0.18510 0.32280 -0.35300
O 	O 	0.54070 0.18290 0.87280 -0.52700
O 	O 	0.33210 0.45930 0.14220 -0.52700
O 	O 	0.42520 0.76260 0.07080 -0.52800
O 	O 	0.75000 0.19880 0.44880 -0.57900
O 	O 	0.07080 0.26260 0.42520 -0.52800
O 	O 	0.18990 0.33210 0.37280 -0.52700
O 	O 	0.86500 0.13610 0.42430 -0.33600
O 	O 	0.32430 0.59030 0.80720 -0.52300
O 	O 	0.36230 0.48070 0.17720 -0.35300
O 	O 	0.94070 0.71180 0.57570 -0.33600
O 	O 	0.85120 0.82470 0.62830 -0.34100
O 	O 	0.80820 0.64560 0.57080 -0.52800
O 	O 	0.44880 0.69880 0.75000 -0.57900
O 	O 	0.04070 0.87280 0.18290 -0.52700
O 	O 	0.88160 0.69650 0.51930 -0.35300
O 	O 	0.19650 0.81490 0.67720 -0.35300
O 	O 	0.36500 0.42430 0.13610 -0.33600
O 	O 	0.26600 0.78310 0.59030 -0.52300
O 	O 	0.35780 0.68990 0.81710 -0.52700
O 	O 	0.86500 0.72890 0.94070 -0.33600
O 	O 	0.81490 0.63770 0.61840 -0.35300
O 	O 	0.23740 0.80820 0.66260 -0.52800
O 	O 	0.80120 0.05120 0.75000 -0.57900
O 	O 	0.59030 0.28310 0.26600 -0.52300
O 	O 	0.12720 0.31710 0.45930 -0.52700
O 	O 	0.25000 0.44880 0.19880 -0.57900
O 	O 	0.14220 0.18290 0.31010 -0.52700
O 	O 	0.13500 0.27110 0.05930 -0.33600
